file 6038 1481395436                                            
version 2
run Wireless01-0-20161210-15:41:54-3627
attr configname Wireless01
attr datetime 20161210-15:41:54
attr experiment Wireless01
attr inifile omnetpp.ini
attr iterationvars ""
attr iterationvars2 $repetition=0
attr measurement ""
attr network WirelessA
attr processid 3627
attr repetition 0
attr replication #0
attr resultdir results
attr runnumber 0
attr seedset 0
param **.hookType "\"NcorpTransportLayerHook\""
param *.configurator.addStaticRoutes false
param *.host*.**.bitrate 1Mbps
param *.host*.networkLayer.arpType "\"GlobalARP\""
param *.host*.wlan[0].mac.fullDuplex false
param *.host*.wlan[0].mac.useAck false
param *.host*.wlan[0].radio.receiver.ignoreInterference true
param *.host*.wlan[0].radio.transmitter.communicationRange 500m
param *.host*.wlan[0].typename "\"IdealWirelessNic\""
param *.hostA.numUdpApps 1
param *.hostA.udpApp[0].destAddresses "\"hostB\""
param *.hostA.udpApp[0].destPort 5000
param *.hostA.udpApp[0].messageLength 1000B
param *.hostA.udpApp[0].packetName "\"UDPData\""
param *.hostA.udpApp[0].sendInterval exponential(12ms)
param *.hostA.udpApp[0].typename "\"UDPBasicApp\""
param *.hostB.numUdpApps 1
param *.hostB.udpApp[0].localPort 5000
param *.hostB.udpApp[0].typename "\"UDPSink\""
param *.hostB.wlan[0].radio.displayCommunicationRange true

vector 15  WirelessA.hostA.wlan[0].queue  queueLength:vector  ETV
attr interpolationmode  sample-hold
attr title  "queue length, vector"
vector 38  WirelessA.hostB.wlan[0].queue  queueLength:vector  ETV
attr interpolationmode  sample-hold
attr title  "queue length, vector"
vector 21  WirelessA.hostA.wlan[0].radio  radioMode:vector  ETV
attr interpolationmode  sample-hold
attr source  radioModeChanged
attr title  "Radio mode, vector"
vector 44  WirelessA.hostB.wlan[0].radio  radioMode:vector  ETV
attr interpolationmode  sample-hold
attr source  radioModeChanged
attr title  "Radio mode, vector"
vector 22  WirelessA.hostA.wlan[0].radio  receptionState:vector  ETV
attr interpolationmode  sample-hold
attr source  receptionStateChanged
attr title  "Radio reception state, vector"
vector 45  WirelessA.hostB.wlan[0].radio  receptionState:vector  ETV
attr interpolationmode  sample-hold
attr source  receptionStateChanged
attr title  "Radio reception state, vector"
vector 1  WirelessA.hostA.udpApp[0]  sentPk:vector(packetBytes)  ETV
attr interpolationmode  none
attr source  sentPk
attr title  "packets sent, vector(packetBytes)"
vector 4  WirelessA.hostA.udp  sentPk:vector(packetBytes)  ETV
attr interpolationmode  none
attr source  sentPk
attr title  "packets sent, vector(packetBytes)"
vector 12  WirelessA.hostA.wlan[0].queue  rcvdPk:vector(packetBytes)  ETV
attr interpolationmode  none
attr title  "received packets, vector(packetBytes)"
vector 14  WirelessA.hostA.wlan[0].queue  queueingTime:vector  ETV
attr interpolationmode  none
attr title  "queueing time, vector"
vector 18  WirelessA.hostA.wlan[0].mac  rcvdPkFromHL:vector(packetBytes)  ETV
attr interpolationmode  none
attr source  packetReceivedFromUpper
attr title  "packets received from higher layer, vector(packetBytes)"
vector 23  WirelessA.hostA.wlan[0].radio  transmissionState:vector  ETV
attr interpolationmode  sample-hold
attr source  transmissionStateChanged
attr title  "Radio transmission state, vector"
vector 17  WirelessA.hostA.wlan[0].mac  sentDownPk:vector(packetBytes)  ETV
attr interpolationmode  none
attr source  packetSentToLower
attr title  "packets sent to lower layer, vector(packetBytes)"
vector 42  WirelessA.hostB.wlan[0].mac  rcvdPkFromLL:vector(packetBytes)  ETV
attr interpolationmode  none
attr source  packetReceivedFromLower
attr title  "packets received from lower layer, vector(packetBytes)"
vector 39  WirelessA.hostB.wlan[0].mac  passedUpPk:vector(packetBytes)  ETV
attr interpolationmode  none
attr source  packetSentToUpper
attr title  "packets passed to higher layer, vector(packetBytes)"
vector 28  WirelessA.hostB.udp  rcvdPk:vector(packetBytes)  ETV
attr interpolationmode  none
attr source  rcvdPk
attr title  "packets received, vector(packetBytes)"
vector 29  WirelessA.hostB.udp  passedUpPk:vector(count)  ETV
attr interpolationmode  none
attr title  "packets passed up, vector(count)"
vector 24  WirelessA.hostB.udpApp[0]  rcvdPk:vector(packetBytes)  ETV
attr interpolationmode  none
attr source  rcvdPk
attr title  "packets received, vector(packetBytes)"
vector 25  WirelessA.hostB.udpApp[0]  endToEndDelay:vector  ETV
attr interpolationmode  none
attr source  messageAge(rcvdPk)
attr title  "end-to-end delay, vector"
attr unit  s
vector 26  WirelessA.hostB.udpApp[0]  rcvdPkSeqNo:vector  ETV
attr interpolationmode  none
attr source  appPkSeqNo(rcvdPk)
attr title  "received packet sequence number, vector"
1	4724 75 12 44 0.022315250545 0.041385743993 3 1000 1000 3000 3000000
4	4799 75 14 45 0.022315250545 0.041385743993 3 1008 1008 3024 3048192
12	4874 52 17 25 0.022315250545 0.028927832385 2 1028 1028 2056 2113568
14	4926 58 17 26 0.022315250545 0.030539250545 2 0 0.00161141816 0.00161141816 2.5966684863778e-06
15	4984 55 0 26 0 0.030539250545 3 0 1 1 1
17	5039 52 18 27 0.022315250545 0.030539250545 2 1028 1028 2056 2113568
18	5091 52 18 27 0.022315250545 0.030539250545 2 1028 1028 2056 2113568
21	5143 110 0 36 0 0.038763250545 6 0 3 12 30
22	5253 101 0 36 0 0.038763250545 5 0 1 3 3
23	5354 184 18 36 0.022315250545 0.038763250545 8 0 2 8 12
24	5538 52 35 42 0.030540584801 0.038764584801 2 1000 1000 2000 2000000
25	5590 72 35 42 0.030540584801 0.038764584801 2 0.008225334256 0.009836752416 0.018062086672 0.00016441782171661
26	5662 46 35 42 0.030540584801 0.038764584801 2 0 1 1 1
28	5708 52 34 41 0.030540584801 0.038764584801 2 1008 1008 2016 2032128
29	5760 46 34 41 0.030540584801 0.038764584801 2 1 2 3 5
38	5806 9 0 0 0 0 1 0 0 0 0
39	5815 52 31 38 0.030540584801 0.038764584801 2 1028 1028 2056 2113568
42	5867 52 31 38 0.030540584801 0.038764584801 2 1028 1028 2056 2113568
44	5919 18 0 0 0 0 2 0 2 2 4
45	5937 101 0 37 0 0.038764584801 5 1 3 10 24
