version 2
run Transmissao-0-20140905-11:43:25-6058
attr configname Transmissao
attr datetime 20140905-11:43:25
attr experiment Transmissao
attr inifile omnetpp.ini
attr iterationvars ""
attr iterationvars2 $repetition=0
attr measurement ""
attr network ncorp_inetmanet.simulations.rede100.Net80211_aodv
attr processid 6058
attr repetition 0
attr replication #0
attr resultdir results
attr runnumber 0
attr seedset 0

scalar Net80211_aodv.fixhost[0].networkLayer.arp 	failedResolution:count 	0
attr title  "ARP failed resolutions, count"
scalar Net80211_aodv.fixhost[0].networkLayer.arp 	initiatedResolution:count 	0
attr title  "ARP initiated resolutions, count"
scalar Net80211_aodv.fixhost[0].networkLayer.arp 	sentReplies:count 	0
attr title  "ARP replies sent, count"
scalar Net80211_aodv.fixhost[0].networkLayer.arp 	sentReq:count 	0
attr title  "ARP request sent, count"
scalar Net80211_aodv.fixhost[0].lo0.lo 	passedUpPk:count 	0
attr interpolationmode  none
attr source  packetSentToUpper
attr title  "packets passed to higher layer, count"
scalar Net80211_aodv.fixhost[0].lo0.lo 	passedUpPk:sum(packetBytes) 	0
attr interpolationmode  none
attr source  packetSentToUpper
attr title  "packets passed to higher layer, sum(packetBytes)"
scalar Net80211_aodv.fixhost[0].lo0.lo 	rcvdPkFromHL:count 	0
attr interpolationmode  none
attr source  packetReceivedFromUpper
attr title  "packets received from higher layer, count"
scalar Net80211_aodv.fixhost[0].lo0.lo 	rcvdPkFromHL:sum(packetBytes) 	0
attr interpolationmode  none
attr source  packetReceivedFromUpper
attr title  "packets received from higher layer, sum(packetBytes)"
scalar Net80211_aodv.fixhost[0].lo0.lo 	droppedPkBitError:count 	0
attr interpolationmode  none
attr source  dropPkBitError
attr title  "packets dropped/bit error, count"
scalar Net80211_aodv.fixhost[0].lo0.lo 	droppedPkBitError:sum(packetBytes) 	0
attr interpolationmode  none
attr source  dropPkBitError
attr title  "packets dropped/bit error, sum(packetBytes)"
scalar Net80211_aodv.fixhost[0].wlan[0].mgmt 	dropPkByQueue:count 	60
attr interpolationmode  none
attr source  dropPkByQueue
attr title  "packets dropped by queue, count"
scalar Net80211_aodv.fixhost[0].wlan[0].mgmt 	dropPkByQueue:sum(packetBytes) 	6480
attr interpolationmode  none
attr source  dropPkByQueue
attr title  "packets dropped by queue, sum(packetBytes)"
scalar Net80211_aodv.fixhost[0].wlan[0].mgmt 	dataQueueLen:max 	10
attr interpolationmode  sample-hold
attr title  "data queue length, max"
scalar Net80211_aodv.fixhost[0].wlan[0].mgmt 	dataQueueLen:timeavg 	0.085481180175607
attr interpolationmode  sample-hold
attr title  "data queue length, timeavg"
scalar Net80211_aodv.fixhost[0].wlan[0].mac 	"number of received packets" 	0
scalar Net80211_aodv.fixhost[0].wlan[0].mac 	"number of collisions" 	108
scalar Net80211_aodv.fixhost[0].wlan[0].mac 	"number of internal collisions" 	0
scalar Net80211_aodv.fixhost[0].wlan[0].mac 	"number of retry for AC 0" 	0
scalar Net80211_aodv.fixhost[0].wlan[0].mac 	"sent and received bits" 	84672
scalar Net80211_aodv.fixhost[0].wlan[0].mac 	"sent packet within AC 0" 	0
scalar Net80211_aodv.fixhost[0].wlan[0].mac 	"sent in TXOP " 	0
scalar Net80211_aodv.fixhost[0].wlan[0].mac 	"sentWithoutRetry AC 0" 	0
scalar Net80211_aodv.fixhost[0].wlan[0].mac 	"numGivenUp AC 0" 	0
scalar Net80211_aodv.fixhost[0].wlan[0].mac 	"numDropped AC 0" 	0
scalar Net80211_aodv.fixhost[0].wlan[0].mac 	rcvdPkFromLL:count 	529
attr interpolationmode  none
attr source  packetReceivedFromLower
attr title  "packets received from lower layer, count"
scalar Net80211_aodv.fixhost[0].wlan[0].mac 	rcvdPkFromLL:sum(packetBytes) 	49038
attr interpolationmode  none
attr source  packetReceivedFromLower
attr title  "packets received from lower layer, sum(packetBytes)"
scalar Net80211_aodv.fixhost[0].wlan[0].mac 	sentDownPk:count 	98
attr interpolationmode  none
attr source  packetSentToLower
attr title  "packets sent to lower layer, count"
scalar Net80211_aodv.fixhost[0].wlan[0].mac 	sentDownPk:sum(packetBytes) 	10584
attr interpolationmode  none
attr source  packetSentToLower
attr title  "packets sent to lower layer, sum(packetBytes)"
scalar Net80211_aodv.fixhost[0].wlan[0].mac 	passedUpPk:count 	421
attr interpolationmode  none
attr source  packetSentToUpper
attr title  "packets passed to higher layer, count"
scalar Net80211_aodv.fixhost[0].wlan[0].mac 	passedUpPk:sum(packetBytes) 	39046
attr interpolationmode  none
attr source  packetSentToUpper
attr title  "packets passed to higher layer, sum(packetBytes)"
scalar Net80211_aodv.fixhost[0].wlan[0].mac 	rcvdPkFromHL:count 	100
attr interpolationmode  none
attr source  packetReceivedFromUpper
attr title  "packets received from higher layer, count"
scalar Net80211_aodv.fixhost[0].wlan[0].mac 	rcvdPkFromHL:sum(packetBytes) 	10800
attr interpolationmode  none
attr source  packetReceivedFromUpper
attr title  "packets received from higher layer, sum(packetBytes)"
scalar Net80211_aodv.fixhost[0].wlan[0].radio 	lossRate:min 	0.06
attr interpolationmode  backward-sample-hold
attr title  "packet loss rate, min"
scalar Net80211_aodv.fixhost[0].wlan[0].radio 	lossRate:max 	0.28
attr interpolationmode  backward-sample-hold
attr title  "packet loss rate, max"
scalar Net80211_aodv.fixhost[0].wlan[0].radio 	lossRate:timeavg 	0.19635500763031
attr interpolationmode  backward-sample-hold
attr title  "packet loss rate, timeavg"
scalar Net80211_aodv.fixhost[0].wlan[0].radio 	radioState:count 	1457
attr interpolationmode  sample-hold
attr title  "radio state (enum), count"
statistic Net80211_aodv.fixhost[0].wlan[0].radio 	channelNo:histogram
field count 1
field mean 0
field stddev -nan
field sum 0
field sqrsum 0
field min 0
field max 0
attr interpolationmode  sample-hold
attr title  "channel no, histogram"
bin	-INF	0
bin	-0.5	0
bin	-0.46666666666667	0
bin	-0.43333333333333	0
bin	-0.4	0
bin	-0.36666666666667	0
bin	-0.33333333333333	0
bin	-0.3	0
bin	-0.26666666666667	0
bin	-0.23333333333333	0
bin	-0.2	0
bin	-0.16666666666667	0
bin	-0.13333333333333	0
bin	-0.1	0
bin	-0.066666666666667	0
bin	-0.033333333333333	0
bin	0	1
bin	0.033333333333333	0
bin	0.066666666666667	0
bin	0.1	0
bin	0.13333333333333	0
bin	0.16666666666667	0
bin	0.2	0
bin	0.23333333333333	0
bin	0.26666666666667	0
bin	0.3	0
bin	0.33333333333333	0
bin	0.36666666666667	0
bin	0.4	0
bin	0.43333333333333	0
bin	0.46666666666667	0
bin	0.5	0
scalar Net80211_aodv.fixhost[0].wlan[0].radio 	bitrate:min 	54000000
attr interpolationmode  sample-hold
attr title  "tx bitrate, min"
attr unit  bps
scalar Net80211_aodv.fixhost[0].wlan[0].radio 	bitrate:max 	54000000
attr interpolationmode  sample-hold
attr title  "tx bitrate, max"
attr unit  bps
scalar Net80211_aodv.fixhost[0].wlan[0].radio 	bitrate:timeavg 	54000000
attr interpolationmode  sample-hold
attr title  "tx bitrate, timeavg"
attr unit  bps
scalar Net80211_aodv.fixhost[0].udpApp[0] 	dropPk:count 	0
attr interpolationmode  none
attr source  dropPk
attr title  "packets dropped, count"
scalar Net80211_aodv.fixhost[0].udpApp[0] 	dropPk:sum(packetBytes) 	0
attr interpolationmode  none
attr source  dropPk
attr title  "packets dropped, sum(packetBytes)"
scalar Net80211_aodv.fixhost[0].udpApp[0] 	rcvdPk:count 	0
attr interpolationmode  none
attr source  rcvdPk
attr title  "packets received, count"
scalar Net80211_aodv.fixhost[0].udpApp[0] 	rcvdPk:sum(packetBytes) 	0
attr interpolationmode  none
attr source  rcvdPk
attr title  "packets received, sum(packetBytes)"
scalar Net80211_aodv.fixhost[0].udpApp[0] 	sentPk:count 	0
attr interpolationmode  none
attr source  sentPk
attr title  "packets sent, count"
scalar Net80211_aodv.fixhost[0].udpApp[0] 	sentPk:sum(packetBytes) 	0
attr interpolationmode  none
attr source  sentPk
attr title  "packets sent, sum(packetBytes)"
scalar Net80211_aodv.fixhost[0].udp 	droppedPkBadChecksum:count 	0
attr interpolationmode  none
attr title  "packets dropped (checksum error), count"
scalar Net80211_aodv.fixhost[0].udp 	droppedPkWrongPort:count 	0
attr interpolationmode  none
attr title  "packets dropped (wrong port), count"
scalar Net80211_aodv.fixhost[0].udp 	passedUpPk:count 	421
attr interpolationmode  none
attr title  "packets passed up, count"
scalar Net80211_aodv.fixhost[0].udp 	rcvdPk:count 	421
attr interpolationmode  none
attr source  rcvdPk
attr title  "packets received, count"
scalar Net80211_aodv.fixhost[0].udp 	rcvdPk:sum(packetBytes) 	12944
attr interpolationmode  none
attr source  rcvdPk
attr title  "packets received, sum(packetBytes)"
scalar Net80211_aodv.fixhost[0].udp 	sentPk:count 	169
attr interpolationmode  none
attr source  sentPk
attr title  "packets sent, count"
scalar Net80211_aodv.fixhost[0].udp 	sentPk:sum(packetBytes) 	7774
attr interpolationmode  none
attr source  sentPk
attr title  "packets sent, sum(packetBytes)"
scalar Net80211_aodv.host[0].networkLayer.arp 	failedResolution:count 	0
attr title  "ARP failed resolutions, count"
scalar Net80211_aodv.host[0].networkLayer.arp 	initiatedResolution:count 	0
attr title  "ARP initiated resolutions, count"
scalar Net80211_aodv.host[0].networkLayer.arp 	sentReplies:count 	0
attr title  "ARP replies sent, count"
scalar Net80211_aodv.host[0].networkLayer.arp 	sentReq:count 	0
attr title  "ARP request sent, count"
scalar Net80211_aodv.host[0].lo0.lo 	passedUpPk:count 	0
attr interpolationmode  none
attr source  packetSentToUpper
attr title  "packets passed to higher layer, count"
scalar Net80211_aodv.host[0].lo0.lo 	passedUpPk:sum(packetBytes) 	0
attr interpolationmode  none
attr source  packetSentToUpper
attr title  "packets passed to higher layer, sum(packetBytes)"
scalar Net80211_aodv.host[0].lo0.lo 	rcvdPkFromHL:count 	0
attr interpolationmode  none
attr source  packetReceivedFromUpper
attr title  "packets received from higher layer, count"
scalar Net80211_aodv.host[0].lo0.lo 	rcvdPkFromHL:sum(packetBytes) 	0
attr interpolationmode  none
attr source  packetReceivedFromUpper
attr title  "packets received from higher layer, sum(packetBytes)"
scalar Net80211_aodv.host[0].lo0.lo 	droppedPkBitError:count 	0
attr interpolationmode  none
attr source  dropPkBitError
attr title  "packets dropped/bit error, count"
scalar Net80211_aodv.host[0].lo0.lo 	droppedPkBitError:sum(packetBytes) 	0
attr interpolationmode  none
attr source  dropPkBitError
attr title  "packets dropped/bit error, sum(packetBytes)"
scalar Net80211_aodv.host[0].wlan[0].mgmt 	dropPkByQueue:count 	0
attr interpolationmode  none
attr source  dropPkByQueue
attr title  "packets dropped by queue, count"
scalar Net80211_aodv.host[0].wlan[0].mgmt 	dropPkByQueue:sum(packetBytes) 	0
attr interpolationmode  none
attr source  dropPkByQueue
attr title  "packets dropped by queue, sum(packetBytes)"
scalar Net80211_aodv.host[0].wlan[0].mgmt 	dataQueueLen:max 	0
attr interpolationmode  sample-hold
attr title  "data queue length, max"
scalar Net80211_aodv.host[0].wlan[0].mgmt 	dataQueueLen:timeavg 	0
attr interpolationmode  sample-hold
attr title  "data queue length, timeavg"
scalar Net80211_aodv.host[0].wlan[0].mac 	"number of received packets" 	0
scalar Net80211_aodv.host[0].wlan[0].mac 	"number of collisions" 	111
scalar Net80211_aodv.host[0].wlan[0].mac 	"number of internal collisions" 	0
scalar Net80211_aodv.host[0].wlan[0].mac 	"number of retry for AC 0" 	0
scalar Net80211_aodv.host[0].wlan[0].mac 	"sent and received bits" 	20160
scalar Net80211_aodv.host[0].wlan[0].mac 	"sent packet within AC 0" 	0
scalar Net80211_aodv.host[0].wlan[0].mac 	"sent in TXOP " 	0
scalar Net80211_aodv.host[0].wlan[0].mac 	"sentWithoutRetry AC 0" 	0
scalar Net80211_aodv.host[0].wlan[0].mac 	"numGivenUp AC 0" 	0
scalar Net80211_aodv.host[0].wlan[0].mac 	"numDropped AC 0" 	0
scalar Net80211_aodv.host[0].wlan[0].mac 	rcvdPkFromLL:count 	268
attr interpolationmode  none
attr source  packetReceivedFromLower
attr title  "packets received from lower layer, count"
scalar Net80211_aodv.host[0].wlan[0].mac 	rcvdPkFromLL:sum(packetBytes) 	20736
attr interpolationmode  none
attr source  packetReceivedFromLower
attr title  "packets received from lower layer, sum(packetBytes)"
scalar Net80211_aodv.host[0].wlan[0].mac 	sentDownPk:count 	36
attr interpolationmode  none
attr source  packetSentToLower
attr title  "packets sent to lower layer, count"
scalar Net80211_aodv.host[0].wlan[0].mac 	sentDownPk:sum(packetBytes) 	2520
attr interpolationmode  none
attr source  packetSentToLower
attr title  "packets sent to lower layer, sum(packetBytes)"
scalar Net80211_aodv.host[0].wlan[0].mac 	passedUpPk:count 	157
attr interpolationmode  none
attr source  packetSentToUpper
attr title  "packets passed to higher layer, count"
scalar Net80211_aodv.host[0].wlan[0].mac 	passedUpPk:sum(packetBytes) 	11940
attr interpolationmode  none
attr source  packetSentToUpper
attr title  "packets passed to higher layer, sum(packetBytes)"
scalar Net80211_aodv.host[0].wlan[0].mac 	rcvdPkFromHL:count 	36
attr interpolationmode  none
attr source  packetReceivedFromUpper
attr title  "packets received from higher layer, count"
scalar Net80211_aodv.host[0].wlan[0].mac 	rcvdPkFromHL:sum(packetBytes) 	2520
attr interpolationmode  none
attr source  packetReceivedFromUpper
attr title  "packets received from higher layer, sum(packetBytes)"
scalar Net80211_aodv.host[0].wlan[0].radio 	lossRate:min 	0.28
attr interpolationmode  backward-sample-hold
attr title  "packet loss rate, min"
scalar Net80211_aodv.host[0].wlan[0].radio 	lossRate:max 	0.64
attr interpolationmode  backward-sample-hold
attr title  "packet loss rate, max"
scalar Net80211_aodv.host[0].wlan[0].radio 	lossRate:timeavg 	0.50526980357722
attr interpolationmode  backward-sample-hold
attr title  "packet loss rate, timeavg"
scalar Net80211_aodv.host[0].wlan[0].radio 	radioState:count 	980
attr interpolationmode  sample-hold
attr title  "radio state (enum), count"
statistic Net80211_aodv.host[0].wlan[0].radio 	channelNo:histogram
field count 1
field mean 0
field stddev -nan
field sum 0
field sqrsum 0
field min 0
field max 0
attr interpolationmode  sample-hold
attr title  "channel no, histogram"
bin	-INF	0
bin	-0.5	0
bin	-0.46666666666667	0
bin	-0.43333333333333	0
bin	-0.4	0
bin	-0.36666666666667	0
bin	-0.33333333333333	0
bin	-0.3	0
bin	-0.26666666666667	0
bin	-0.23333333333333	0
bin	-0.2	0
bin	-0.16666666666667	0
bin	-0.13333333333333	0
bin	-0.1	0
bin	-0.066666666666667	0
bin	-0.033333333333333	0
bin	0	1
bin	0.033333333333333	0
bin	0.066666666666667	0
bin	0.1	0
bin	0.13333333333333	0
bin	0.16666666666667	0
bin	0.2	0
bin	0.23333333333333	0
bin	0.26666666666667	0
bin	0.3	0
bin	0.33333333333333	0
bin	0.36666666666667	0
bin	0.4	0
bin	0.43333333333333	0
bin	0.46666666666667	0
bin	0.5	0
scalar Net80211_aodv.host[0].wlan[0].radio 	bitrate:min 	54000000
attr interpolationmode  sample-hold
attr title  "tx bitrate, min"
attr unit  bps
scalar Net80211_aodv.host[0].wlan[0].radio 	bitrate:max 	54000000
attr interpolationmode  sample-hold
attr title  "tx bitrate, max"
attr unit  bps
scalar Net80211_aodv.host[0].wlan[0].radio 	bitrate:timeavg 	54000000
attr interpolationmode  sample-hold
attr title  "tx bitrate, timeavg"
attr unit  bps
scalar Net80211_aodv.host[0].udpApp[0] 	dropPk:count 	0
attr interpolationmode  none
attr source  dropPk
attr title  "packets dropped, count"
scalar Net80211_aodv.host[0].udpApp[0] 	dropPk:sum(packetBytes) 	0
attr interpolationmode  none
attr source  dropPk
attr title  "packets dropped, sum(packetBytes)"
scalar Net80211_aodv.host[0].udpApp[0] 	rcvdPk:count 	0
attr interpolationmode  none
attr source  rcvdPk
attr title  "packets received, count"
scalar Net80211_aodv.host[0].udpApp[0] 	rcvdPk:sum(packetBytes) 	0
attr interpolationmode  none
attr source  rcvdPk
attr title  "packets received, sum(packetBytes)"
scalar Net80211_aodv.host[0].udpApp[0] 	sentPk:count 	0
attr interpolationmode  none
attr source  sentPk
attr title  "packets sent, count"
scalar Net80211_aodv.host[0].udpApp[0] 	sentPk:sum(packetBytes) 	0
attr interpolationmode  none
attr source  sentPk
attr title  "packets sent, sum(packetBytes)"
scalar Net80211_aodv.host[0].udp 	droppedPkBadChecksum:count 	0
attr interpolationmode  none
attr title  "packets dropped (checksum error), count"
scalar Net80211_aodv.host[0].udp 	droppedPkWrongPort:count 	0
attr interpolationmode  none
attr title  "packets dropped (wrong port), count"
scalar Net80211_aodv.host[0].udp 	passedUpPk:count 	157
attr interpolationmode  none
attr title  "packets passed up, count"
scalar Net80211_aodv.host[0].udp 	rcvdPk:count 	157
attr interpolationmode  none
attr source  rcvdPk
attr title  "packets received, count"
scalar Net80211_aodv.host[0].udp 	rcvdPk:sum(packetBytes) 	2206
attr interpolationmode  none
attr source  rcvdPk
attr title  "packets received, sum(packetBytes)"
scalar Net80211_aodv.host[0].udp 	sentPk:count 	36
attr interpolationmode  none
attr source  sentPk
attr title  "packets sent, count"
scalar Net80211_aodv.host[0].udp 	sentPk:sum(packetBytes) 	288
attr interpolationmode  none
attr source  sentPk
attr title  "packets sent, sum(packetBytes)"
scalar Net80211_aodv.host[1].networkLayer.arp 	failedResolution:count 	0
attr title  "ARP failed resolutions, count"
scalar Net80211_aodv.host[1].networkLayer.arp 	initiatedResolution:count 	0
attr title  "ARP initiated resolutions, count"
scalar Net80211_aodv.host[1].networkLayer.arp 	sentReplies:count 	0
attr title  "ARP replies sent, count"
scalar Net80211_aodv.host[1].networkLayer.arp 	sentReq:count 	0
attr title  "ARP request sent, count"
scalar Net80211_aodv.host[1].lo0.lo 	passedUpPk:count 	0
attr interpolationmode  none
attr source  packetSentToUpper
attr title  "packets passed to higher layer, count"
scalar Net80211_aodv.host[1].lo0.lo 	passedUpPk:sum(packetBytes) 	0
attr interpolationmode  none
attr source  packetSentToUpper
attr title  "packets passed to higher layer, sum(packetBytes)"
scalar Net80211_aodv.host[1].lo0.lo 	rcvdPkFromHL:count 	0
attr interpolationmode  none
attr source  packetReceivedFromUpper
attr title  "packets received from higher layer, count"
scalar Net80211_aodv.host[1].lo0.lo 	rcvdPkFromHL:sum(packetBytes) 	0
attr interpolationmode  none
attr source  packetReceivedFromUpper
attr title  "packets received from higher layer, sum(packetBytes)"
scalar Net80211_aodv.host[1].lo0.lo 	droppedPkBitError:count 	0
attr interpolationmode  none
attr source  dropPkBitError
attr title  "packets dropped/bit error, count"
scalar Net80211_aodv.host[1].lo0.lo 	droppedPkBitError:sum(packetBytes) 	0
attr interpolationmode  none
attr source  dropPkBitError
attr title  "packets dropped/bit error, sum(packetBytes)"
scalar Net80211_aodv.host[1].wlan[0].mgmt 	dropPkByQueue:count 	0
attr interpolationmode  none
attr source  dropPkByQueue
attr title  "packets dropped by queue, count"
scalar Net80211_aodv.host[1].wlan[0].mgmt 	dropPkByQueue:sum(packetBytes) 	0
attr interpolationmode  none
attr source  dropPkByQueue
attr title  "packets dropped by queue, sum(packetBytes)"
scalar Net80211_aodv.host[1].wlan[0].mgmt 	dataQueueLen:max 	4
attr interpolationmode  sample-hold
attr title  "data queue length, max"
scalar Net80211_aodv.host[1].wlan[0].mgmt 	dataQueueLen:timeavg 	0.0053165919524014
attr interpolationmode  sample-hold
attr title  "data queue length, timeavg"
scalar Net80211_aodv.host[1].wlan[0].mac 	"number of received packets" 	0
scalar Net80211_aodv.host[1].wlan[0].mac 	"number of collisions" 	144
scalar Net80211_aodv.host[1].wlan[0].mac 	"number of internal collisions" 	0
scalar Net80211_aodv.host[1].wlan[0].mac 	"number of retry for AC 0" 	0
scalar Net80211_aodv.host[1].wlan[0].mac 	"sent and received bits" 	25776
scalar Net80211_aodv.host[1].wlan[0].mac 	"sent packet within AC 0" 	0
scalar Net80211_aodv.host[1].wlan[0].mac 	"sent in TXOP " 	0
scalar Net80211_aodv.host[1].wlan[0].mac 	"sentWithoutRetry AC 0" 	0
scalar Net80211_aodv.host[1].wlan[0].mac 	"numGivenUp AC 0" 	0
scalar Net80211_aodv.host[1].wlan[0].mac 	"numDropped AC 0" 	0
scalar Net80211_aodv.host[1].wlan[0].mac 	rcvdPkFromLL:count 	621
attr interpolationmode  none
attr source  packetReceivedFromLower
attr title  "packets received from lower layer, count"
scalar Net80211_aodv.host[1].wlan[0].mac 	rcvdPkFromLL:sum(packetBytes) 	57644
attr interpolationmode  none
attr source  packetReceivedFromLower
attr title  "packets received from lower layer, sum(packetBytes)"
scalar Net80211_aodv.host[1].wlan[0].mac 	sentDownPk:count 	33
attr interpolationmode  none
attr source  packetSentToLower
attr title  "packets sent to lower layer, count"
scalar Net80211_aodv.host[1].wlan[0].mac 	sentDownPk:sum(packetBytes) 	3222
attr interpolationmode  none
attr source  packetSentToLower
attr title  "packets sent to lower layer, sum(packetBytes)"
scalar Net80211_aodv.host[1].wlan[0].mac 	passedUpPk:count 	477
attr interpolationmode  none
attr source  packetSentToUpper
attr title  "packets passed to higher layer, count"
scalar Net80211_aodv.host[1].wlan[0].mac 	passedUpPk:sum(packetBytes) 	44942
attr interpolationmode  none
attr source  packetSentToUpper
attr title  "packets passed to higher layer, sum(packetBytes)"
scalar Net80211_aodv.host[1].wlan[0].mac 	rcvdPkFromHL:count 	34
attr interpolationmode  none
attr source  packetReceivedFromUpper
attr title  "packets received from higher layer, count"
scalar Net80211_aodv.host[1].wlan[0].mac 	rcvdPkFromHL:sum(packetBytes) 	3292
attr interpolationmode  none
attr source  packetReceivedFromUpper
attr title  "packets received from higher layer, sum(packetBytes)"
scalar Net80211_aodv.host[1].wlan[0].radio 	lossRate:min 	0.16
attr interpolationmode  backward-sample-hold
attr title  "packet loss rate, min"
scalar Net80211_aodv.host[1].wlan[0].radio 	lossRate:max 	0.34
attr interpolationmode  backward-sample-hold
attr title  "packet loss rate, max"
scalar Net80211_aodv.host[1].wlan[0].radio 	lossRate:timeavg 	0.22490766996164
attr interpolationmode  backward-sample-hold
attr title  "packet loss rate, timeavg"
scalar Net80211_aodv.host[1].wlan[0].radio 	radioState:count 	1419
attr interpolationmode  sample-hold
attr title  "radio state (enum), count"
statistic Net80211_aodv.host[1].wlan[0].radio 	channelNo:histogram
field count 1
field mean 0
field stddev -nan
field sum 0
field sqrsum 0
field min 0
field max 0
attr interpolationmode  sample-hold
attr title  "channel no, histogram"
bin	-INF	0
bin	-0.5	0
bin	-0.46666666666667	0
bin	-0.43333333333333	0
bin	-0.4	0
bin	-0.36666666666667	0
bin	-0.33333333333333	0
bin	-0.3	0
bin	-0.26666666666667	0
bin	-0.23333333333333	0
bin	-0.2	0
bin	-0.16666666666667	0
bin	-0.13333333333333	0
bin	-0.1	0
bin	-0.066666666666667	0
bin	-0.033333333333333	0
bin	0	1
bin	0.033333333333333	0
bin	0.066666666666667	0
bin	0.1	0
bin	0.13333333333333	0
bin	0.16666666666667	0
bin	0.2	0
bin	0.23333333333333	0
bin	0.26666666666667	0
bin	0.3	0
bin	0.33333333333333	0
bin	0.36666666666667	0
bin	0.4	0
bin	0.43333333333333	0
bin	0.46666666666667	0
bin	0.5	0
scalar Net80211_aodv.host[1].wlan[0].radio 	bitrate:min 	54000000
attr interpolationmode  sample-hold
attr title  "tx bitrate, min"
attr unit  bps
scalar Net80211_aodv.host[1].wlan[0].radio 	bitrate:max 	54000000
attr interpolationmode  sample-hold
attr title  "tx bitrate, max"
attr unit  bps
scalar Net80211_aodv.host[1].wlan[0].radio 	bitrate:timeavg 	54000000
attr interpolationmode  sample-hold
attr title  "tx bitrate, timeavg"
attr unit  bps
scalar Net80211_aodv.host[1].udpApp[0] 	dropPk:count 	0
attr interpolationmode  none
attr source  dropPk
attr title  "packets dropped, count"
scalar Net80211_aodv.host[1].udpApp[0] 	dropPk:sum(packetBytes) 	0
attr interpolationmode  none
attr source  dropPk
attr title  "packets dropped, sum(packetBytes)"
scalar Net80211_aodv.host[1].udpApp[0] 	rcvdPk:count 	0
attr interpolationmode  none
attr source  rcvdPk
attr title  "packets received, count"
scalar Net80211_aodv.host[1].udpApp[0] 	rcvdPk:sum(packetBytes) 	0
attr interpolationmode  none
attr source  rcvdPk
attr title  "packets received, sum(packetBytes)"
scalar Net80211_aodv.host[1].udpApp[0] 	sentPk:count 	0
attr interpolationmode  none
attr source  sentPk
attr title  "packets sent, count"
scalar Net80211_aodv.host[1].udpApp[0] 	sentPk:sum(packetBytes) 	0
attr interpolationmode  none
attr source  sentPk
attr title  "packets sent, sum(packetBytes)"
scalar Net80211_aodv.host[1].udp 	droppedPkBadChecksum:count 	0
attr interpolationmode  none
attr title  "packets dropped (checksum error), count"
scalar Net80211_aodv.host[1].udp 	droppedPkWrongPort:count 	0
attr interpolationmode  none
attr title  "packets dropped (wrong port), count"
scalar Net80211_aodv.host[1].udp 	passedUpPk:count 	476
attr interpolationmode  none
attr title  "packets passed up, count"
scalar Net80211_aodv.host[1].udp 	rcvdPk:count 	476
attr interpolationmode  none
attr source  rcvdPk
attr title  "packets received, count"
scalar Net80211_aodv.host[1].udp 	rcvdPk:sum(packetBytes) 	15322
attr interpolationmode  none
attr source  rcvdPk
attr title  "packets received, sum(packetBytes)"
scalar Net80211_aodv.host[1].udp 	sentPk:count 	34
attr interpolationmode  none
attr source  sentPk
attr title  "packets sent, count"
scalar Net80211_aodv.host[1].udp 	sentPk:sum(packetBytes) 	1184
attr interpolationmode  none
attr source  sentPk
attr title  "packets sent, sum(packetBytes)"
scalar Net80211_aodv.host[2].networkLayer.arp 	failedResolution:count 	0
attr title  "ARP failed resolutions, count"
scalar Net80211_aodv.host[2].networkLayer.arp 	initiatedResolution:count 	0
attr title  "ARP initiated resolutions, count"
scalar Net80211_aodv.host[2].networkLayer.arp 	sentReplies:count 	0
attr title  "ARP replies sent, count"
scalar Net80211_aodv.host[2].networkLayer.arp 	sentReq:count 	0
attr title  "ARP request sent, count"
scalar Net80211_aodv.host[2].lo0.lo 	passedUpPk:count 	0
attr interpolationmode  none
attr source  packetSentToUpper
attr title  "packets passed to higher layer, count"
scalar Net80211_aodv.host[2].lo0.lo 	passedUpPk:sum(packetBytes) 	0
attr interpolationmode  none
attr source  packetSentToUpper
attr title  "packets passed to higher layer, sum(packetBytes)"
scalar Net80211_aodv.host[2].lo0.lo 	rcvdPkFromHL:count 	0
attr interpolationmode  none
attr source  packetReceivedFromUpper
attr title  "packets received from higher layer, count"
scalar Net80211_aodv.host[2].lo0.lo 	rcvdPkFromHL:sum(packetBytes) 	0
attr interpolationmode  none
attr source  packetReceivedFromUpper
attr title  "packets received from higher layer, sum(packetBytes)"
scalar Net80211_aodv.host[2].lo0.lo 	droppedPkBitError:count 	0
attr interpolationmode  none
attr source  dropPkBitError
attr title  "packets dropped/bit error, count"
scalar Net80211_aodv.host[2].lo0.lo 	droppedPkBitError:sum(packetBytes) 	0
attr interpolationmode  none
attr source  dropPkBitError
attr title  "packets dropped/bit error, sum(packetBytes)"
scalar Net80211_aodv.host[2].wlan[0].mgmt 	dropPkByQueue:count 	0
attr interpolationmode  none
attr source  dropPkByQueue
attr title  "packets dropped by queue, count"
scalar Net80211_aodv.host[2].wlan[0].mgmt 	dropPkByQueue:sum(packetBytes) 	0
attr interpolationmode  none
attr source  dropPkByQueue
attr title  "packets dropped by queue, sum(packetBytes)"
scalar Net80211_aodv.host[2].wlan[0].mgmt 	dataQueueLen:max 	7
attr interpolationmode  sample-hold
attr title  "data queue length, max"
scalar Net80211_aodv.host[2].wlan[0].mgmt 	dataQueueLen:timeavg 	0.020624289331724
attr interpolationmode  sample-hold
attr title  "data queue length, timeavg"
scalar Net80211_aodv.host[2].wlan[0].mac 	"number of received packets" 	0
scalar Net80211_aodv.host[2].wlan[0].mac 	"number of collisions" 	246
scalar Net80211_aodv.host[2].wlan[0].mac 	"number of internal collisions" 	0
scalar Net80211_aodv.host[2].wlan[0].mac 	"number of retry for AC 0" 	0
scalar Net80211_aodv.host[2].wlan[0].mac 	"sent and received bits" 	23856
scalar Net80211_aodv.host[2].wlan[0].mac 	"sent packet within AC 0" 	0
scalar Net80211_aodv.host[2].wlan[0].mac 	"sent in TXOP " 	0
scalar Net80211_aodv.host[2].wlan[0].mac 	"sentWithoutRetry AC 0" 	0
scalar Net80211_aodv.host[2].wlan[0].mac 	"numGivenUp AC 0" 	0
scalar Net80211_aodv.host[2].wlan[0].mac 	"numDropped AC 0" 	0
scalar Net80211_aodv.host[2].wlan[0].mac 	rcvdPkFromLL:count 	632
attr interpolationmode  none
attr source  packetReceivedFromLower
attr title  "packets received from lower layer, count"
scalar Net80211_aodv.host[2].wlan[0].mac 	rcvdPkFromLL:sum(packetBytes) 	55146
attr interpolationmode  none
attr source  packetReceivedFromLower
attr title  "packets received from lower layer, sum(packetBytes)"
scalar Net80211_aodv.host[2].wlan[0].mac 	sentDownPk:count 	35
attr interpolationmode  none
attr source  packetSentToLower
attr title  "packets sent to lower layer, count"
scalar Net80211_aodv.host[2].wlan[0].mac 	sentDownPk:sum(packetBytes) 	2982
attr interpolationmode  none
attr source  packetSentToLower
attr title  "packets sent to lower layer, sum(packetBytes)"
scalar Net80211_aodv.host[2].wlan[0].mac 	passedUpPk:count 	386
attr interpolationmode  none
attr source  packetSentToUpper
attr title  "packets passed to higher layer, count"
scalar Net80211_aodv.host[2].wlan[0].mac 	passedUpPk:sum(packetBytes) 	34240
attr interpolationmode  none
attr source  packetSentToUpper
attr title  "packets passed to higher layer, sum(packetBytes)"
scalar Net80211_aodv.host[2].wlan[0].mac 	rcvdPkFromHL:count 	35
attr interpolationmode  none
attr source  packetReceivedFromUpper
attr title  "packets received from higher layer, count"
scalar Net80211_aodv.host[2].wlan[0].mac 	rcvdPkFromHL:sum(packetBytes) 	2982
attr interpolationmode  none
attr source  packetReceivedFromUpper
attr title  "packets received from higher layer, sum(packetBytes)"
scalar Net80211_aodv.host[2].wlan[0].radio 	lossRate:min 	0.2
attr interpolationmode  backward-sample-hold
attr title  "packet loss rate, min"
scalar Net80211_aodv.host[2].wlan[0].radio 	lossRate:max 	0.58
attr interpolationmode  backward-sample-hold
attr title  "packet loss rate, max"
scalar Net80211_aodv.host[2].wlan[0].radio 	lossRate:timeavg 	0.39648551430757
attr interpolationmode  backward-sample-hold
attr title  "packet loss rate, timeavg"
scalar Net80211_aodv.host[2].wlan[0].radio 	radioState:count 	1463
attr interpolationmode  sample-hold
attr title  "radio state (enum), count"
statistic Net80211_aodv.host[2].wlan[0].radio 	channelNo:histogram
field count 1
field mean 0
field stddev -nan
field sum 0
field sqrsum 0
field min 0
field max 0
attr interpolationmode  sample-hold
attr title  "channel no, histogram"
bin	-INF	0
bin	-0.5	0
bin	-0.46666666666667	0
bin	-0.43333333333333	0
bin	-0.4	0
bin	-0.36666666666667	0
bin	-0.33333333333333	0
bin	-0.3	0
bin	-0.26666666666667	0
bin	-0.23333333333333	0
bin	-0.2	0
bin	-0.16666666666667	0
bin	-0.13333333333333	0
bin	-0.1	0
bin	-0.066666666666667	0
bin	-0.033333333333333	0
bin	0	1
bin	0.033333333333333	0
bin	0.066666666666667	0
bin	0.1	0
bin	0.13333333333333	0
bin	0.16666666666667	0
bin	0.2	0
bin	0.23333333333333	0
bin	0.26666666666667	0
bin	0.3	0
bin	0.33333333333333	0
bin	0.36666666666667	0
bin	0.4	0
bin	0.43333333333333	0
bin	0.46666666666667	0
bin	0.5	0
scalar Net80211_aodv.host[2].wlan[0].radio 	bitrate:min 	54000000
attr interpolationmode  sample-hold
attr title  "tx bitrate, min"
attr unit  bps
scalar Net80211_aodv.host[2].wlan[0].radio 	bitrate:max 	54000000
attr interpolationmode  sample-hold
attr title  "tx bitrate, max"
attr unit  bps
scalar Net80211_aodv.host[2].wlan[0].radio 	bitrate:timeavg 	54000000
attr interpolationmode  sample-hold
attr title  "tx bitrate, timeavg"
attr unit  bps
scalar Net80211_aodv.host[2].udpApp[0] 	dropPk:count 	0
attr interpolationmode  none
attr source  dropPk
attr title  "packets dropped, count"
scalar Net80211_aodv.host[2].udpApp[0] 	dropPk:sum(packetBytes) 	0
attr interpolationmode  none
attr source  dropPk
attr title  "packets dropped, sum(packetBytes)"
scalar Net80211_aodv.host[2].udpApp[0] 	rcvdPk:count 	0
attr interpolationmode  none
attr source  rcvdPk
attr title  "packets received, count"
scalar Net80211_aodv.host[2].udpApp[0] 	rcvdPk:sum(packetBytes) 	0
attr interpolationmode  none
attr source  rcvdPk
attr title  "packets received, sum(packetBytes)"
scalar Net80211_aodv.host[2].udpApp[0] 	sentPk:count 	0
attr interpolationmode  none
attr source  sentPk
attr title  "packets sent, count"
scalar Net80211_aodv.host[2].udpApp[0] 	sentPk:sum(packetBytes) 	0
attr interpolationmode  none
attr source  sentPk
attr title  "packets sent, sum(packetBytes)"
scalar Net80211_aodv.host[2].udp 	droppedPkBadChecksum:count 	0
attr interpolationmode  none
attr title  "packets dropped (checksum error), count"
scalar Net80211_aodv.host[2].udp 	droppedPkWrongPort:count 	0
attr interpolationmode  none
attr title  "packets dropped (wrong port), count"
scalar Net80211_aodv.host[2].udp 	passedUpPk:count 	386
attr interpolationmode  none
attr title  "packets passed up, count"
scalar Net80211_aodv.host[2].udp 	rcvdPk:count 	386
attr interpolationmode  none
attr source  rcvdPk
attr title  "packets received, count"
scalar Net80211_aodv.host[2].udp 	rcvdPk:sum(packetBytes) 	10308
attr interpolationmode  none
attr source  rcvdPk
attr title  "packets received, sum(packetBytes)"
scalar Net80211_aodv.host[2].udp 	sentPk:count 	35
attr interpolationmode  none
attr source  sentPk
attr title  "packets sent, count"
scalar Net80211_aodv.host[2].udp 	sentPk:sum(packetBytes) 	812
attr interpolationmode  none
attr source  sentPk
attr title  "packets sent, sum(packetBytes)"
scalar Net80211_aodv.host[3].networkLayer.arp 	failedResolution:count 	0
attr title  "ARP failed resolutions, count"
scalar Net80211_aodv.host[3].networkLayer.arp 	initiatedResolution:count 	0
attr title  "ARP initiated resolutions, count"
scalar Net80211_aodv.host[3].networkLayer.arp 	sentReplies:count 	0
attr title  "ARP replies sent, count"
scalar Net80211_aodv.host[3].networkLayer.arp 	sentReq:count 	0
attr title  "ARP request sent, count"
scalar Net80211_aodv.host[3].lo0.lo 	passedUpPk:count 	0
attr interpolationmode  none
attr source  packetSentToUpper
attr title  "packets passed to higher layer, count"
scalar Net80211_aodv.host[3].lo0.lo 	passedUpPk:sum(packetBytes) 	0
attr interpolationmode  none
attr source  packetSentToUpper
attr title  "packets passed to higher layer, sum(packetBytes)"
scalar Net80211_aodv.host[3].lo0.lo 	rcvdPkFromHL:count 	0
attr interpolationmode  none
attr source  packetReceivedFromUpper
attr title  "packets received from higher layer, count"
scalar Net80211_aodv.host[3].lo0.lo 	rcvdPkFromHL:sum(packetBytes) 	0
attr interpolationmode  none
attr source  packetReceivedFromUpper
attr title  "packets received from higher layer, sum(packetBytes)"
scalar Net80211_aodv.host[3].lo0.lo 	droppedPkBitError:count 	0
attr interpolationmode  none
attr source  dropPkBitError
attr title  "packets dropped/bit error, count"
scalar Net80211_aodv.host[3].lo0.lo 	droppedPkBitError:sum(packetBytes) 	0
attr interpolationmode  none
attr source  dropPkBitError
attr title  "packets dropped/bit error, sum(packetBytes)"
scalar Net80211_aodv.host[3].wlan[0].mgmt 	dropPkByQueue:count 	0
attr interpolationmode  none
attr source  dropPkByQueue
attr title  "packets dropped by queue, count"
scalar Net80211_aodv.host[3].wlan[0].mgmt 	dropPkByQueue:sum(packetBytes) 	0
attr interpolationmode  none
attr source  dropPkByQueue
attr title  "packets dropped by queue, sum(packetBytes)"
scalar Net80211_aodv.host[3].wlan[0].mgmt 	dataQueueLen:max 	1
attr interpolationmode  sample-hold
attr title  "data queue length, max"
scalar Net80211_aodv.host[3].wlan[0].mgmt 	dataQueueLen:timeavg 	0.0005271173997408
attr interpolationmode  sample-hold
attr title  "data queue length, timeavg"
scalar Net80211_aodv.host[3].wlan[0].mac 	"number of received packets" 	0
scalar Net80211_aodv.host[3].wlan[0].mac 	"number of collisions" 	277
scalar Net80211_aodv.host[3].wlan[0].mac 	"number of internal collisions" 	0
scalar Net80211_aodv.host[3].wlan[0].mac 	"number of retry for AC 0" 	0
scalar Net80211_aodv.host[3].wlan[0].mac 	"sent and received bits" 	10176
scalar Net80211_aodv.host[3].wlan[0].mac 	"sent packet within AC 0" 	0
scalar Net80211_aodv.host[3].wlan[0].mac 	"sent in TXOP " 	0
scalar Net80211_aodv.host[3].wlan[0].mac 	"sentWithoutRetry AC 0" 	0
scalar Net80211_aodv.host[3].wlan[0].mac 	"numGivenUp AC 0" 	0
scalar Net80211_aodv.host[3].wlan[0].mac 	"numDropped AC 0" 	0
scalar Net80211_aodv.host[3].wlan[0].mac 	rcvdPkFromLL:count 	494
attr interpolationmode  none
attr source  packetReceivedFromLower
attr title  "packets received from lower layer, count"
scalar Net80211_aodv.host[3].wlan[0].mac 	rcvdPkFromLL:sum(packetBytes) 	38912
attr interpolationmode  none
attr source  packetReceivedFromLower
attr title  "packets received from lower layer, sum(packetBytes)"
scalar Net80211_aodv.host[3].wlan[0].mac 	sentDownPk:count 	16
attr interpolationmode  none
attr source  packetSentToLower
attr title  "packets sent to lower layer, count"
scalar Net80211_aodv.host[3].wlan[0].mac 	sentDownPk:sum(packetBytes) 	1272
attr interpolationmode  none
attr source  packetSentToLower
attr title  "packets sent to lower layer, sum(packetBytes)"
scalar Net80211_aodv.host[3].wlan[0].mac 	passedUpPk:count 	217
attr interpolationmode  none
attr source  packetSentToUpper
attr title  "packets passed to higher layer, count"
scalar Net80211_aodv.host[3].wlan[0].mac 	passedUpPk:sum(packetBytes) 	16976
attr interpolationmode  none
attr source  packetSentToUpper
attr title  "packets passed to higher layer, sum(packetBytes)"
scalar Net80211_aodv.host[3].wlan[0].mac 	rcvdPkFromHL:count 	16
attr interpolationmode  none
attr source  packetReceivedFromUpper
attr title  "packets received from higher layer, count"
scalar Net80211_aodv.host[3].wlan[0].mac 	rcvdPkFromHL:sum(packetBytes) 	1272
attr interpolationmode  none
attr source  packetReceivedFromUpper
attr title  "packets received from higher layer, sum(packetBytes)"
scalar Net80211_aodv.host[3].wlan[0].radio 	lossRate:min 	0.46
attr interpolationmode  backward-sample-hold
attr title  "packet loss rate, min"
scalar Net80211_aodv.host[3].wlan[0].radio 	lossRate:max 	0.7
attr interpolationmode  backward-sample-hold
attr title  "packet loss rate, max"
scalar Net80211_aodv.host[3].wlan[0].radio 	lossRate:timeavg 	0.57066344324061
attr interpolationmode  backward-sample-hold
attr title  "packet loss rate, timeavg"
scalar Net80211_aodv.host[3].wlan[0].radio 	radioState:count 	1461
attr interpolationmode  sample-hold
attr title  "radio state (enum), count"
statistic Net80211_aodv.host[3].wlan[0].radio 	channelNo:histogram
field count 1
field mean 0
field stddev -nan
field sum 0
field sqrsum 0
field min 0
field max 0
attr interpolationmode  sample-hold
attr title  "channel no, histogram"
bin	-INF	0
bin	-0.5	0
bin	-0.46666666666667	0
bin	-0.43333333333333	0
bin	-0.4	0
bin	-0.36666666666667	0
bin	-0.33333333333333	0
bin	-0.3	0
bin	-0.26666666666667	0
bin	-0.23333333333333	0
bin	-0.2	0
bin	-0.16666666666667	0
bin	-0.13333333333333	0
bin	-0.1	0
bin	-0.066666666666667	0
bin	-0.033333333333333	0
bin	0	1
bin	0.033333333333333	0
bin	0.066666666666667	0
bin	0.1	0
bin	0.13333333333333	0
bin	0.16666666666667	0
bin	0.2	0
bin	0.23333333333333	0
bin	0.26666666666667	0
bin	0.3	0
bin	0.33333333333333	0
bin	0.36666666666667	0
bin	0.4	0
bin	0.43333333333333	0
bin	0.46666666666667	0
bin	0.5	0
scalar Net80211_aodv.host[3].wlan[0].radio 	bitrate:min 	54000000
attr interpolationmode  sample-hold
attr title  "tx bitrate, min"
attr unit  bps
scalar Net80211_aodv.host[3].wlan[0].radio 	bitrate:max 	54000000
attr interpolationmode  sample-hold
attr title  "tx bitrate, max"
attr unit  bps
scalar Net80211_aodv.host[3].wlan[0].radio 	bitrate:timeavg 	54000000
attr interpolationmode  sample-hold
attr title  "tx bitrate, timeavg"
attr unit  bps
scalar Net80211_aodv.host[3].udpApp[0] 	dropPk:count 	0
attr interpolationmode  none
attr source  dropPk
attr title  "packets dropped, count"
scalar Net80211_aodv.host[3].udpApp[0] 	dropPk:sum(packetBytes) 	0
attr interpolationmode  none
attr source  dropPk
attr title  "packets dropped, sum(packetBytes)"
scalar Net80211_aodv.host[3].udpApp[0] 	rcvdPk:count 	0
attr interpolationmode  none
attr source  rcvdPk
attr title  "packets received, count"
scalar Net80211_aodv.host[3].udpApp[0] 	rcvdPk:sum(packetBytes) 	0
attr interpolationmode  none
attr source  rcvdPk
attr title  "packets received, sum(packetBytes)"
scalar Net80211_aodv.host[3].udpApp[0] 	sentPk:count 	0
attr interpolationmode  none
attr source  sentPk
attr title  "packets sent, count"
scalar Net80211_aodv.host[3].udpApp[0] 	sentPk:sum(packetBytes) 	0
attr interpolationmode  none
attr source  sentPk
attr title  "packets sent, sum(packetBytes)"
scalar Net80211_aodv.host[3].udp 	droppedPkBadChecksum:count 	0
attr interpolationmode  none
attr title  "packets dropped (checksum error), count"
scalar Net80211_aodv.host[3].udp 	droppedPkWrongPort:count 	0
attr interpolationmode  none
attr title  "packets dropped (wrong port), count"
scalar Net80211_aodv.host[3].udp 	passedUpPk:count 	217
attr interpolationmode  none
attr title  "packets passed up, count"
scalar Net80211_aodv.host[3].udp 	rcvdPk:count 	217
attr interpolationmode  none
attr source  rcvdPk
attr title  "packets received, count"
scalar Net80211_aodv.host[3].udp 	rcvdPk:sum(packetBytes) 	3522
attr interpolationmode  none
attr source  rcvdPk
attr title  "packets received, sum(packetBytes)"
scalar Net80211_aodv.host[3].udp 	sentPk:count 	16
attr interpolationmode  none
attr source  sentPk
attr title  "packets sent, count"
scalar Net80211_aodv.host[3].udp 	sentPk:sum(packetBytes) 	280
attr interpolationmode  none
attr source  sentPk
attr title  "packets sent, sum(packetBytes)"
scalar Net80211_aodv.host[4].networkLayer.arp 	failedResolution:count 	0
attr title  "ARP failed resolutions, count"
scalar Net80211_aodv.host[4].networkLayer.arp 	initiatedResolution:count 	0
attr title  "ARP initiated resolutions, count"
scalar Net80211_aodv.host[4].networkLayer.arp 	sentReplies:count 	0
attr title  "ARP replies sent, count"
scalar Net80211_aodv.host[4].networkLayer.arp 	sentReq:count 	0
attr title  "ARP request sent, count"
scalar Net80211_aodv.host[4].lo0.lo 	passedUpPk:count 	0
attr interpolationmode  none
attr source  packetSentToUpper
attr title  "packets passed to higher layer, count"
scalar Net80211_aodv.host[4].lo0.lo 	passedUpPk:sum(packetBytes) 	0
attr interpolationmode  none
attr source  packetSentToUpper
attr title  "packets passed to higher layer, sum(packetBytes)"
scalar Net80211_aodv.host[4].lo0.lo 	rcvdPkFromHL:count 	0
attr interpolationmode  none
attr source  packetReceivedFromUpper
attr title  "packets received from higher layer, count"
scalar Net80211_aodv.host[4].lo0.lo 	rcvdPkFromHL:sum(packetBytes) 	0
attr interpolationmode  none
attr source  packetReceivedFromUpper
attr title  "packets received from higher layer, sum(packetBytes)"
scalar Net80211_aodv.host[4].lo0.lo 	droppedPkBitError:count 	0
attr interpolationmode  none
attr source  dropPkBitError
attr title  "packets dropped/bit error, count"
scalar Net80211_aodv.host[4].lo0.lo 	droppedPkBitError:sum(packetBytes) 	0
attr interpolationmode  none
attr source  dropPkBitError
attr title  "packets dropped/bit error, sum(packetBytes)"
scalar Net80211_aodv.host[4].wlan[0].mgmt 	dropPkByQueue:count 	0
attr interpolationmode  none
attr source  dropPkByQueue
attr title  "packets dropped by queue, count"
scalar Net80211_aodv.host[4].wlan[0].mgmt 	dropPkByQueue:sum(packetBytes) 	0
attr interpolationmode  none
attr source  dropPkByQueue
attr title  "packets dropped by queue, sum(packetBytes)"
scalar Net80211_aodv.host[4].wlan[0].mgmt 	dataQueueLen:max 	4
attr interpolationmode  sample-hold
attr title  "data queue length, max"
scalar Net80211_aodv.host[4].wlan[0].mgmt 	dataQueueLen:timeavg 	0.023664668798381
attr interpolationmode  sample-hold
attr title  "data queue length, timeavg"
scalar Net80211_aodv.host[4].wlan[0].mac 	"number of received packets" 	0
scalar Net80211_aodv.host[4].wlan[0].mac 	"number of collisions" 	393
scalar Net80211_aodv.host[4].wlan[0].mac 	"number of internal collisions" 	0
scalar Net80211_aodv.host[4].wlan[0].mac 	"number of retry for AC 0" 	0
scalar Net80211_aodv.host[4].wlan[0].mac 	"sent and received bits" 	12560
scalar Net80211_aodv.host[4].wlan[0].mac 	"sent packet within AC 0" 	0
scalar Net80211_aodv.host[4].wlan[0].mac 	"sent in TXOP " 	0
scalar Net80211_aodv.host[4].wlan[0].mac 	"sentWithoutRetry AC 0" 	0
scalar Net80211_aodv.host[4].wlan[0].mac 	"numGivenUp AC 0" 	0
scalar Net80211_aodv.host[4].wlan[0].mac 	"numDropped AC 0" 	0
scalar Net80211_aodv.host[4].wlan[0].mac 	rcvdPkFromLL:count 	679
attr interpolationmode  none
attr source  packetReceivedFromLower
attr title  "packets received from lower layer, count"
scalar Net80211_aodv.host[4].wlan[0].mac 	rcvdPkFromLL:sum(packetBytes) 	58930
attr interpolationmode  none
attr source  packetReceivedFromLower
attr title  "packets received from lower layer, sum(packetBytes)"
scalar Net80211_aodv.host[4].wlan[0].mac 	sentDownPk:count 	17
attr interpolationmode  none
attr source  packetSentToLower
attr title  "packets sent to lower layer, count"
scalar Net80211_aodv.host[4].wlan[0].mac 	sentDownPk:sum(packetBytes) 	1570
attr interpolationmode  none
attr source  packetSentToLower
attr title  "packets sent to lower layer, sum(packetBytes)"
scalar Net80211_aodv.host[4].wlan[0].mac 	passedUpPk:count 	286
attr interpolationmode  none
attr source  packetSentToUpper
attr title  "packets passed to higher layer, count"
scalar Net80211_aodv.host[4].wlan[0].mac 	passedUpPk:sum(packetBytes) 	25226
attr interpolationmode  none
attr source  packetSentToUpper
attr title  "packets passed to higher layer, sum(packetBytes)"
scalar Net80211_aodv.host[4].wlan[0].mac 	rcvdPkFromHL:count 	19
attr interpolationmode  none
attr source  packetReceivedFromUpper
attr title  "packets received from higher layer, count"
scalar Net80211_aodv.host[4].wlan[0].mac 	rcvdPkFromHL:sum(packetBytes) 	1786
attr interpolationmode  none
attr source  packetReceivedFromUpper
attr title  "packets received from higher layer, sum(packetBytes)"
scalar Net80211_aodv.host[4].wlan[0].radio 	lossRate:min 	0.4
attr interpolationmode  backward-sample-hold
attr title  "packet loss rate, min"
scalar Net80211_aodv.host[4].wlan[0].radio 	lossRate:max 	0.74
attr interpolationmode  backward-sample-hold
attr title  "packet loss rate, max"
scalar Net80211_aodv.host[4].wlan[0].radio 	lossRate:timeavg 	0.59053182474186
attr interpolationmode  backward-sample-hold
attr title  "packet loss rate, timeavg"
scalar Net80211_aodv.host[4].wlan[0].radio 	radioState:count 	1357
attr interpolationmode  sample-hold
attr title  "radio state (enum), count"
statistic Net80211_aodv.host[4].wlan[0].radio 	channelNo:histogram
field count 1
field mean 0
field stddev -nan
field sum 0
field sqrsum 0
field min 0
field max 0
attr interpolationmode  sample-hold
attr title  "channel no, histogram"
bin	-INF	0
bin	-0.5	0
bin	-0.46666666666667	0
bin	-0.43333333333333	0
bin	-0.4	0
bin	-0.36666666666667	0
bin	-0.33333333333333	0
bin	-0.3	0
bin	-0.26666666666667	0
bin	-0.23333333333333	0
bin	-0.2	0
bin	-0.16666666666667	0
bin	-0.13333333333333	0
bin	-0.1	0
bin	-0.066666666666667	0
bin	-0.033333333333333	0
bin	0	1
bin	0.033333333333333	0
bin	0.066666666666667	0
bin	0.1	0
bin	0.13333333333333	0
bin	0.16666666666667	0
bin	0.2	0
bin	0.23333333333333	0
bin	0.26666666666667	0
bin	0.3	0
bin	0.33333333333333	0
bin	0.36666666666667	0
bin	0.4	0
bin	0.43333333333333	0
bin	0.46666666666667	0
bin	0.5	0
scalar Net80211_aodv.host[4].wlan[0].radio 	bitrate:min 	54000000
attr interpolationmode  sample-hold
attr title  "tx bitrate, min"
attr unit  bps
scalar Net80211_aodv.host[4].wlan[0].radio 	bitrate:max 	54000000
attr interpolationmode  sample-hold
attr title  "tx bitrate, max"
attr unit  bps
scalar Net80211_aodv.host[4].wlan[0].radio 	bitrate:timeavg 	54000000
attr interpolationmode  sample-hold
attr title  "tx bitrate, timeavg"
attr unit  bps
scalar Net80211_aodv.host[4].udpApp[0] 	dropPk:count 	0
attr interpolationmode  none
attr source  dropPk
attr title  "packets dropped, count"
scalar Net80211_aodv.host[4].udpApp[0] 	dropPk:sum(packetBytes) 	0
attr interpolationmode  none
attr source  dropPk
attr title  "packets dropped, sum(packetBytes)"
scalar Net80211_aodv.host[4].udpApp[0] 	rcvdPk:count 	0
attr interpolationmode  none
attr source  rcvdPk
attr title  "packets received, count"
scalar Net80211_aodv.host[4].udpApp[0] 	rcvdPk:sum(packetBytes) 	0
attr interpolationmode  none
attr source  rcvdPk
attr title  "packets received, sum(packetBytes)"
scalar Net80211_aodv.host[4].udpApp[0] 	sentPk:count 	0
attr interpolationmode  none
attr source  sentPk
attr title  "packets sent, count"
scalar Net80211_aodv.host[4].udpApp[0] 	sentPk:sum(packetBytes) 	0
attr interpolationmode  none
attr source  sentPk
attr title  "packets sent, sum(packetBytes)"
scalar Net80211_aodv.host[4].udp 	droppedPkBadChecksum:count 	0
attr interpolationmode  none
attr title  "packets dropped (checksum error), count"
scalar Net80211_aodv.host[4].udp 	droppedPkWrongPort:count 	0
attr interpolationmode  none
attr title  "packets dropped (wrong port), count"
scalar Net80211_aodv.host[4].udp 	passedUpPk:count 	286
attr interpolationmode  none
attr title  "packets passed up, count"
scalar Net80211_aodv.host[4].udp 	rcvdPk:count 	286
attr interpolationmode  none
attr source  rcvdPk
attr title  "packets received, count"
scalar Net80211_aodv.host[4].udp 	rcvdPk:sum(packetBytes) 	7494
attr interpolationmode  none
attr source  rcvdPk
attr title  "packets received, sum(packetBytes)"
scalar Net80211_aodv.host[4].udp 	sentPk:count 	23
attr interpolationmode  none
attr source  sentPk
attr title  "packets sent, count"
scalar Net80211_aodv.host[4].udp 	sentPk:sum(packetBytes) 	792
attr interpolationmode  none
attr source  sentPk
attr title  "packets sent, sum(packetBytes)"
scalar Net80211_aodv.host[5].networkLayer.arp 	failedResolution:count 	0
attr title  "ARP failed resolutions, count"
scalar Net80211_aodv.host[5].networkLayer.arp 	initiatedResolution:count 	0
attr title  "ARP initiated resolutions, count"
scalar Net80211_aodv.host[5].networkLayer.arp 	sentReplies:count 	0
attr title  "ARP replies sent, count"
scalar Net80211_aodv.host[5].networkLayer.arp 	sentReq:count 	0
attr title  "ARP request sent, count"
scalar Net80211_aodv.host[5].lo0.lo 	passedUpPk:count 	0
attr interpolationmode  none
attr source  packetSentToUpper
attr title  "packets passed to higher layer, count"
scalar Net80211_aodv.host[5].lo0.lo 	passedUpPk:sum(packetBytes) 	0
attr interpolationmode  none
attr source  packetSentToUpper
attr title  "packets passed to higher layer, sum(packetBytes)"
scalar Net80211_aodv.host[5].lo0.lo 	rcvdPkFromHL:count 	0
attr interpolationmode  none
attr source  packetReceivedFromUpper
attr title  "packets received from higher layer, count"
scalar Net80211_aodv.host[5].lo0.lo 	rcvdPkFromHL:sum(packetBytes) 	0
attr interpolationmode  none
attr source  packetReceivedFromUpper
attr title  "packets received from higher layer, sum(packetBytes)"
scalar Net80211_aodv.host[5].lo0.lo 	droppedPkBitError:count 	0
attr interpolationmode  none
attr source  dropPkBitError
attr title  "packets dropped/bit error, count"
scalar Net80211_aodv.host[5].lo0.lo 	droppedPkBitError:sum(packetBytes) 	0
attr interpolationmode  none
attr source  dropPkBitError
attr title  "packets dropped/bit error, sum(packetBytes)"
scalar Net80211_aodv.host[5].wlan[0].mgmt 	dropPkByQueue:count 	0
attr interpolationmode  none
attr source  dropPkByQueue
attr title  "packets dropped by queue, count"
scalar Net80211_aodv.host[5].wlan[0].mgmt 	dropPkByQueue:sum(packetBytes) 	0
attr interpolationmode  none
attr source  dropPkByQueue
attr title  "packets dropped by queue, sum(packetBytes)"
scalar Net80211_aodv.host[5].wlan[0].mgmt 	dataQueueLen:max 	2
attr interpolationmode  sample-hold
attr title  "data queue length, max"
scalar Net80211_aodv.host[5].wlan[0].mgmt 	dataQueueLen:timeavg 	0.0116748767833
attr interpolationmode  sample-hold
attr title  "data queue length, timeavg"
scalar Net80211_aodv.host[5].wlan[0].mac 	"number of received packets" 	0
scalar Net80211_aodv.host[5].wlan[0].mac 	"number of collisions" 	512
scalar Net80211_aodv.host[5].wlan[0].mac 	"number of internal collisions" 	0
scalar Net80211_aodv.host[5].wlan[0].mac 	"number of retry for AC 0" 	0
scalar Net80211_aodv.host[5].wlan[0].mac 	"sent and received bits" 	6512
scalar Net80211_aodv.host[5].wlan[0].mac 	"sent packet within AC 0" 	0
scalar Net80211_aodv.host[5].wlan[0].mac 	"sent in TXOP " 	0
scalar Net80211_aodv.host[5].wlan[0].mac 	"sentWithoutRetry AC 0" 	0
scalar Net80211_aodv.host[5].wlan[0].mac 	"numGivenUp AC 0" 	0
scalar Net80211_aodv.host[5].wlan[0].mac 	"numDropped AC 0" 	0
scalar Net80211_aodv.host[5].wlan[0].mac 	rcvdPkFromLL:count 	557
attr interpolationmode  none
attr source  packetReceivedFromLower
attr title  "packets received from lower layer, count"
scalar Net80211_aodv.host[5].wlan[0].mac 	rcvdPkFromLL:sum(packetBytes) 	46438
attr interpolationmode  none
attr source  packetReceivedFromLower
attr title  "packets received from lower layer, sum(packetBytes)"
scalar Net80211_aodv.host[5].wlan[0].mac 	sentDownPk:count 	10
attr interpolationmode  none
attr source  packetSentToLower
attr title  "packets sent to lower layer, count"
scalar Net80211_aodv.host[5].wlan[0].mac 	sentDownPk:sum(packetBytes) 	814
attr interpolationmode  none
attr source  packetSentToLower
attr title  "packets sent to lower layer, sum(packetBytes)"
scalar Net80211_aodv.host[5].wlan[0].mac 	passedUpPk:count 	45
attr interpolationmode  none
attr source  packetSentToUpper
attr title  "packets passed to higher layer, count"
scalar Net80211_aodv.host[5].wlan[0].mac 	passedUpPk:sum(packetBytes) 	3644
attr interpolationmode  none
attr source  packetSentToUpper
attr title  "packets passed to higher layer, sum(packetBytes)"
scalar Net80211_aodv.host[5].wlan[0].mac 	rcvdPkFromHL:count 	11
attr interpolationmode  none
attr source  packetReceivedFromUpper
attr title  "packets received from higher layer, count"
scalar Net80211_aodv.host[5].wlan[0].mac 	rcvdPkFromHL:sum(packetBytes) 	884
attr interpolationmode  none
attr source  packetReceivedFromUpper
attr title  "packets received from higher layer, sum(packetBytes)"
scalar Net80211_aodv.host[5].wlan[0].radio 	lossRate:min 	0.62
attr interpolationmode  backward-sample-hold
attr title  "packet loss rate, min"
scalar Net80211_aodv.host[5].wlan[0].radio 	lossRate:max 	1
attr interpolationmode  backward-sample-hold
attr title  "packet loss rate, max"
scalar Net80211_aodv.host[5].wlan[0].radio 	lossRate:timeavg 	0.94498658410593
attr interpolationmode  backward-sample-hold
attr title  "packet loss rate, timeavg"
scalar Net80211_aodv.host[5].wlan[0].radio 	radioState:count 	1314
attr interpolationmode  sample-hold
attr title  "radio state (enum), count"
statistic Net80211_aodv.host[5].wlan[0].radio 	channelNo:histogram
field count 1
field mean 0
field stddev -nan
field sum 0
field sqrsum 0
field min 0
field max 0
attr interpolationmode  sample-hold
attr title  "channel no, histogram"
bin	-INF	0
bin	-0.5	0
bin	-0.46666666666667	0
bin	-0.43333333333333	0
bin	-0.4	0
bin	-0.36666666666667	0
bin	-0.33333333333333	0
bin	-0.3	0
bin	-0.26666666666667	0
bin	-0.23333333333333	0
bin	-0.2	0
bin	-0.16666666666667	0
bin	-0.13333333333333	0
bin	-0.1	0
bin	-0.066666666666667	0
bin	-0.033333333333333	0
bin	0	1
bin	0.033333333333333	0
bin	0.066666666666667	0
bin	0.1	0
bin	0.13333333333333	0
bin	0.16666666666667	0
bin	0.2	0
bin	0.23333333333333	0
bin	0.26666666666667	0
bin	0.3	0
bin	0.33333333333333	0
bin	0.36666666666667	0
bin	0.4	0
bin	0.43333333333333	0
bin	0.46666666666667	0
bin	0.5	0
scalar Net80211_aodv.host[5].wlan[0].radio 	bitrate:min 	54000000
attr interpolationmode  sample-hold
attr title  "tx bitrate, min"
attr unit  bps
scalar Net80211_aodv.host[5].wlan[0].radio 	bitrate:max 	54000000
attr interpolationmode  sample-hold
attr title  "tx bitrate, max"
attr unit  bps
scalar Net80211_aodv.host[5].wlan[0].radio 	bitrate:timeavg 	54000000
attr interpolationmode  sample-hold
attr title  "tx bitrate, timeavg"
attr unit  bps
scalar Net80211_aodv.host[5].udpApp[0] 	dropPk:count 	0
attr interpolationmode  none
attr source  dropPk
attr title  "packets dropped, count"
scalar Net80211_aodv.host[5].udpApp[0] 	dropPk:sum(packetBytes) 	0
attr interpolationmode  none
attr source  dropPk
attr title  "packets dropped, sum(packetBytes)"
scalar Net80211_aodv.host[5].udpApp[0] 	rcvdPk:count 	0
attr interpolationmode  none
attr source  rcvdPk
attr title  "packets received, count"
scalar Net80211_aodv.host[5].udpApp[0] 	rcvdPk:sum(packetBytes) 	0
attr interpolationmode  none
attr source  rcvdPk
attr title  "packets received, sum(packetBytes)"
scalar Net80211_aodv.host[5].udpApp[0] 	sentPk:count 	0
attr interpolationmode  none
attr source  sentPk
attr title  "packets sent, count"
scalar Net80211_aodv.host[5].udpApp[0] 	sentPk:sum(packetBytes) 	0
attr interpolationmode  none
attr source  sentPk
attr title  "packets sent, sum(packetBytes)"
scalar Net80211_aodv.host[5].udp 	droppedPkBadChecksum:count 	0
attr interpolationmode  none
attr title  "packets dropped (checksum error), count"
scalar Net80211_aodv.host[5].udp 	droppedPkWrongPort:count 	0
attr interpolationmode  none
attr title  "packets dropped (wrong port), count"
scalar Net80211_aodv.host[5].udp 	passedUpPk:count 	45
attr interpolationmode  none
attr title  "packets passed up, count"
scalar Net80211_aodv.host[5].udp 	rcvdPk:count 	45
attr interpolationmode  none
attr source  rcvdPk
attr title  "packets received, count"
scalar Net80211_aodv.host[5].udp 	rcvdPk:sum(packetBytes) 	854
attr interpolationmode  none
attr source  rcvdPk
attr title  "packets received, sum(packetBytes)"
scalar Net80211_aodv.host[5].udp 	sentPk:count 	11
attr interpolationmode  none
attr source  sentPk
attr title  "packets sent, count"
scalar Net80211_aodv.host[5].udp 	sentPk:sum(packetBytes) 	202
attr interpolationmode  none
attr source  sentPk
attr title  "packets sent, sum(packetBytes)"
scalar Net80211_aodv.host[6].networkLayer.arp 	failedResolution:count 	0
attr title  "ARP failed resolutions, count"
scalar Net80211_aodv.host[6].networkLayer.arp 	initiatedResolution:count 	0
attr title  "ARP initiated resolutions, count"
scalar Net80211_aodv.host[6].networkLayer.arp 	sentReplies:count 	0
attr title  "ARP replies sent, count"
scalar Net80211_aodv.host[6].networkLayer.arp 	sentReq:count 	0
attr title  "ARP request sent, count"
scalar Net80211_aodv.host[6].lo0.lo 	passedUpPk:count 	0
attr interpolationmode  none
attr source  packetSentToUpper
attr title  "packets passed to higher layer, count"
scalar Net80211_aodv.host[6].lo0.lo 	passedUpPk:sum(packetBytes) 	0
attr interpolationmode  none
attr source  packetSentToUpper
attr title  "packets passed to higher layer, sum(packetBytes)"
scalar Net80211_aodv.host[6].lo0.lo 	rcvdPkFromHL:count 	0
attr interpolationmode  none
attr source  packetReceivedFromUpper
attr title  "packets received from higher layer, count"
scalar Net80211_aodv.host[6].lo0.lo 	rcvdPkFromHL:sum(packetBytes) 	0
attr interpolationmode  none
attr source  packetReceivedFromUpper
attr title  "packets received from higher layer, sum(packetBytes)"
scalar Net80211_aodv.host[6].lo0.lo 	droppedPkBitError:count 	0
attr interpolationmode  none
attr source  dropPkBitError
attr title  "packets dropped/bit error, count"
scalar Net80211_aodv.host[6].lo0.lo 	droppedPkBitError:sum(packetBytes) 	0
attr interpolationmode  none
attr source  dropPkBitError
attr title  "packets dropped/bit error, sum(packetBytes)"
scalar Net80211_aodv.host[6].wlan[0].mgmt 	dropPkByQueue:count 	0
attr interpolationmode  none
attr source  dropPkByQueue
attr title  "packets dropped by queue, count"
scalar Net80211_aodv.host[6].wlan[0].mgmt 	dropPkByQueue:sum(packetBytes) 	0
attr interpolationmode  none
attr source  dropPkByQueue
attr title  "packets dropped by queue, sum(packetBytes)"
scalar Net80211_aodv.host[6].wlan[0].mgmt 	dataQueueLen:max 	4
attr interpolationmode  sample-hold
attr title  "data queue length, max"
scalar Net80211_aodv.host[6].wlan[0].mgmt 	dataQueueLen:timeavg 	0.0012152948124318
attr interpolationmode  sample-hold
attr title  "data queue length, timeavg"
scalar Net80211_aodv.host[6].wlan[0].mac 	"number of received packets" 	0
scalar Net80211_aodv.host[6].wlan[0].mac 	"number of collisions" 	128
scalar Net80211_aodv.host[6].wlan[0].mac 	"number of internal collisions" 	0
scalar Net80211_aodv.host[6].wlan[0].mac 	"number of retry for AC 0" 	0
scalar Net80211_aodv.host[6].wlan[0].mac 	"sent and received bits" 	39840
scalar Net80211_aodv.host[6].wlan[0].mac 	"sent packet within AC 0" 	0
scalar Net80211_aodv.host[6].wlan[0].mac 	"sent in TXOP " 	0
scalar Net80211_aodv.host[6].wlan[0].mac 	"sentWithoutRetry AC 0" 	0
scalar Net80211_aodv.host[6].wlan[0].mac 	"numGivenUp AC 0" 	0
scalar Net80211_aodv.host[6].wlan[0].mac 	"numDropped AC 0" 	0
scalar Net80211_aodv.host[6].wlan[0].mac 	rcvdPkFromLL:count 	457
attr interpolationmode  none
attr source  packetReceivedFromLower
attr title  "packets received from lower layer, count"
scalar Net80211_aodv.host[6].wlan[0].mac 	rcvdPkFromLL:sum(packetBytes) 	37272
attr interpolationmode  none
attr source  packetReceivedFromLower
attr title  "packets received from lower layer, sum(packetBytes)"
scalar Net80211_aodv.host[6].wlan[0].mac 	sentDownPk:count 	63
attr interpolationmode  none
attr source  packetSentToLower
attr title  "packets sent to lower layer, count"
scalar Net80211_aodv.host[6].wlan[0].mac 	sentDownPk:sum(packetBytes) 	4980
attr interpolationmode  none
attr source  packetSentToLower
attr title  "packets sent to lower layer, sum(packetBytes)"
scalar Net80211_aodv.host[6].wlan[0].mac 	passedUpPk:count 	329
attr interpolationmode  none
attr source  packetSentToUpper
attr title  "packets passed to higher layer, count"
scalar Net80211_aodv.host[6].wlan[0].mac 	passedUpPk:sum(packetBytes) 	26868
attr interpolationmode  none
attr source  packetSentToUpper
attr title  "packets passed to higher layer, sum(packetBytes)"
scalar Net80211_aodv.host[6].wlan[0].mac 	rcvdPkFromHL:count 	63
attr interpolationmode  none
attr source  packetReceivedFromUpper
attr title  "packets received from higher layer, count"
scalar Net80211_aodv.host[6].wlan[0].mac 	rcvdPkFromHL:sum(packetBytes) 	4980
attr interpolationmode  none
attr source  packetReceivedFromUpper
attr title  "packets received from higher layer, sum(packetBytes)"
scalar Net80211_aodv.host[6].wlan[0].radio 	lossRate:min 	0.18
attr interpolationmode  backward-sample-hold
attr title  "packet loss rate, min"
scalar Net80211_aodv.host[6].wlan[0].radio 	lossRate:max 	0.44
attr interpolationmode  backward-sample-hold
attr title  "packet loss rate, max"
scalar Net80211_aodv.host[6].wlan[0].radio 	lossRate:timeavg 	0.26686268278315
attr interpolationmode  backward-sample-hold
attr title  "packet loss rate, timeavg"
scalar Net80211_aodv.host[6].wlan[0].radio 	radioState:count 	1471
attr interpolationmode  sample-hold
attr title  "radio state (enum), count"
statistic Net80211_aodv.host[6].wlan[0].radio 	channelNo:histogram
field count 1
field mean 0
field stddev -nan
field sum 0
field sqrsum 0
field min 0
field max 0
attr interpolationmode  sample-hold
attr title  "channel no, histogram"
bin	-INF	0
bin	-0.5	0
bin	-0.46666666666667	0
bin	-0.43333333333333	0
bin	-0.4	0
bin	-0.36666666666667	0
bin	-0.33333333333333	0
bin	-0.3	0
bin	-0.26666666666667	0
bin	-0.23333333333333	0
bin	-0.2	0
bin	-0.16666666666667	0
bin	-0.13333333333333	0
bin	-0.1	0
bin	-0.066666666666667	0
bin	-0.033333333333333	0
bin	0	1
bin	0.033333333333333	0
bin	0.066666666666667	0
bin	0.1	0
bin	0.13333333333333	0
bin	0.16666666666667	0
bin	0.2	0
bin	0.23333333333333	0
bin	0.26666666666667	0
bin	0.3	0
bin	0.33333333333333	0
bin	0.36666666666667	0
bin	0.4	0
bin	0.43333333333333	0
bin	0.46666666666667	0
bin	0.5	0
scalar Net80211_aodv.host[6].wlan[0].radio 	bitrate:min 	54000000
attr interpolationmode  sample-hold
attr title  "tx bitrate, min"
attr unit  bps
scalar Net80211_aodv.host[6].wlan[0].radio 	bitrate:max 	54000000
attr interpolationmode  sample-hold
attr title  "tx bitrate, max"
attr unit  bps
scalar Net80211_aodv.host[6].wlan[0].radio 	bitrate:timeavg 	54000000
attr interpolationmode  sample-hold
attr title  "tx bitrate, timeavg"
attr unit  bps
scalar Net80211_aodv.host[6].udpApp[0] 	dropPk:count 	0
attr interpolationmode  none
attr source  dropPk
attr title  "packets dropped, count"
scalar Net80211_aodv.host[6].udpApp[0] 	dropPk:sum(packetBytes) 	0
attr interpolationmode  none
attr source  dropPk
attr title  "packets dropped, sum(packetBytes)"
scalar Net80211_aodv.host[6].udpApp[0] 	rcvdPk:count 	0
attr interpolationmode  none
attr source  rcvdPk
attr title  "packets received, count"
scalar Net80211_aodv.host[6].udpApp[0] 	rcvdPk:sum(packetBytes) 	0
attr interpolationmode  none
attr source  rcvdPk
attr title  "packets received, sum(packetBytes)"
scalar Net80211_aodv.host[6].udpApp[0] 	sentPk:count 	0
attr interpolationmode  none
attr source  sentPk
attr title  "packets sent, count"
scalar Net80211_aodv.host[6].udpApp[0] 	sentPk:sum(packetBytes) 	0
attr interpolationmode  none
attr source  sentPk
attr title  "packets sent, sum(packetBytes)"
scalar Net80211_aodv.host[6].udp 	droppedPkBadChecksum:count 	0
attr interpolationmode  none
attr title  "packets dropped (checksum error), count"
scalar Net80211_aodv.host[6].udp 	droppedPkWrongPort:count 	0
attr interpolationmode  none
attr title  "packets dropped (wrong port), count"
scalar Net80211_aodv.host[6].udp 	passedUpPk:count 	329
attr interpolationmode  none
attr title  "packets passed up, count"
scalar Net80211_aodv.host[6].udp 	rcvdPk:count 	329
attr interpolationmode  none
attr source  rcvdPk
attr title  "packets received, count"
scalar Net80211_aodv.host[6].udp 	rcvdPk:sum(packetBytes) 	6470
attr interpolationmode  none
attr source  rcvdPk
attr title  "packets received, sum(packetBytes)"
scalar Net80211_aodv.host[6].udp 	sentPk:count 	63
attr interpolationmode  none
attr source  sentPk
attr title  "packets sent, count"
scalar Net80211_aodv.host[6].udp 	sentPk:sum(packetBytes) 	1074
attr interpolationmode  none
attr source  sentPk
attr title  "packets sent, sum(packetBytes)"
scalar Net80211_aodv.host[7].networkLayer.arp 	failedResolution:count 	0
attr title  "ARP failed resolutions, count"
scalar Net80211_aodv.host[7].networkLayer.arp 	initiatedResolution:count 	0
attr title  "ARP initiated resolutions, count"
scalar Net80211_aodv.host[7].networkLayer.arp 	sentReplies:count 	0
attr title  "ARP replies sent, count"
scalar Net80211_aodv.host[7].networkLayer.arp 	sentReq:count 	0
attr title  "ARP request sent, count"
scalar Net80211_aodv.host[7].lo0.lo 	passedUpPk:count 	0
attr interpolationmode  none
attr source  packetSentToUpper
attr title  "packets passed to higher layer, count"
scalar Net80211_aodv.host[7].lo0.lo 	passedUpPk:sum(packetBytes) 	0
attr interpolationmode  none
attr source  packetSentToUpper
attr title  "packets passed to higher layer, sum(packetBytes)"
scalar Net80211_aodv.host[7].lo0.lo 	rcvdPkFromHL:count 	0
attr interpolationmode  none
attr source  packetReceivedFromUpper
attr title  "packets received from higher layer, count"
scalar Net80211_aodv.host[7].lo0.lo 	rcvdPkFromHL:sum(packetBytes) 	0
attr interpolationmode  none
attr source  packetReceivedFromUpper
attr title  "packets received from higher layer, sum(packetBytes)"
scalar Net80211_aodv.host[7].lo0.lo 	droppedPkBitError:count 	0
attr interpolationmode  none
attr source  dropPkBitError
attr title  "packets dropped/bit error, count"
scalar Net80211_aodv.host[7].lo0.lo 	droppedPkBitError:sum(packetBytes) 	0
attr interpolationmode  none
attr source  dropPkBitError
attr title  "packets dropped/bit error, sum(packetBytes)"
scalar Net80211_aodv.host[7].wlan[0].mgmt 	dropPkByQueue:count 	0
attr interpolationmode  none
attr source  dropPkByQueue
attr title  "packets dropped by queue, count"
scalar Net80211_aodv.host[7].wlan[0].mgmt 	dropPkByQueue:sum(packetBytes) 	0
attr interpolationmode  none
attr source  dropPkByQueue
attr title  "packets dropped by queue, sum(packetBytes)"
scalar Net80211_aodv.host[7].wlan[0].mgmt 	dataQueueLen:max 	1
attr interpolationmode  sample-hold
attr title  "data queue length, max"
scalar Net80211_aodv.host[7].wlan[0].mgmt 	dataQueueLen:timeavg 	0.00044994612353608
attr interpolationmode  sample-hold
attr title  "data queue length, timeavg"
scalar Net80211_aodv.host[7].wlan[0].mac 	"number of received packets" 	0
scalar Net80211_aodv.host[7].wlan[0].mac 	"number of collisions" 	317
scalar Net80211_aodv.host[7].wlan[0].mac 	"number of internal collisions" 	0
scalar Net80211_aodv.host[7].wlan[0].mac 	"number of retry for AC 0" 	0
scalar Net80211_aodv.host[7].wlan[0].mac 	"sent and received bits" 	10432
scalar Net80211_aodv.host[7].wlan[0].mac 	"sent packet within AC 0" 	0
scalar Net80211_aodv.host[7].wlan[0].mac 	"sent in TXOP " 	0
scalar Net80211_aodv.host[7].wlan[0].mac 	"sentWithoutRetry AC 0" 	0
scalar Net80211_aodv.host[7].wlan[0].mac 	"numGivenUp AC 0" 	0
scalar Net80211_aodv.host[7].wlan[0].mac 	"numDropped AC 0" 	0
scalar Net80211_aodv.host[7].wlan[0].mac 	rcvdPkFromLL:count 	676
attr interpolationmode  none
attr source  packetReceivedFromLower
attr title  "packets received from lower layer, count"
scalar Net80211_aodv.host[7].wlan[0].mac 	rcvdPkFromLL:sum(packetBytes) 	58112
attr interpolationmode  none
attr source  packetReceivedFromLower
attr title  "packets received from lower layer, sum(packetBytes)"
scalar Net80211_aodv.host[7].wlan[0].mac 	sentDownPk:count 	17
attr interpolationmode  none
attr source  packetSentToLower
attr title  "packets sent to lower layer, count"
scalar Net80211_aodv.host[7].wlan[0].mac 	sentDownPk:sum(packetBytes) 	1304
attr interpolationmode  none
attr source  packetSentToLower
attr title  "packets sent to lower layer, sum(packetBytes)"
scalar Net80211_aodv.host[7].wlan[0].mac 	passedUpPk:count 	359
attr interpolationmode  none
attr source  packetSentToUpper
attr title  "packets passed to higher layer, count"
scalar Net80211_aodv.host[7].wlan[0].mac 	passedUpPk:sum(packetBytes) 	30982
attr interpolationmode  none
attr source  packetSentToUpper
attr title  "packets passed to higher layer, sum(packetBytes)"
scalar Net80211_aodv.host[7].wlan[0].mac 	rcvdPkFromHL:count 	17
attr interpolationmode  none
attr source  packetReceivedFromUpper
attr title  "packets received from higher layer, count"
scalar Net80211_aodv.host[7].wlan[0].mac 	rcvdPkFromHL:sum(packetBytes) 	1304
attr interpolationmode  none
attr source  packetReceivedFromUpper
attr title  "packets received from higher layer, sum(packetBytes)"
scalar Net80211_aodv.host[7].wlan[0].radio 	lossRate:min 	0.38
attr interpolationmode  backward-sample-hold
attr title  "packet loss rate, min"
scalar Net80211_aodv.host[7].wlan[0].radio 	lossRate:max 	0.6
attr interpolationmode  backward-sample-hold
attr title  "packet loss rate, max"
scalar Net80211_aodv.host[7].wlan[0].radio 	lossRate:timeavg 	0.47101923840981
attr interpolationmode  backward-sample-hold
attr title  "packet loss rate, timeavg"
scalar Net80211_aodv.host[7].wlan[0].radio 	radioState:count 	1506
attr interpolationmode  sample-hold
attr title  "radio state (enum), count"
statistic Net80211_aodv.host[7].wlan[0].radio 	channelNo:histogram
field count 1
field mean 0
field stddev -nan
field sum 0
field sqrsum 0
field min 0
field max 0
attr interpolationmode  sample-hold
attr title  "channel no, histogram"
bin	-INF	0
bin	-0.5	0
bin	-0.46666666666667	0
bin	-0.43333333333333	0
bin	-0.4	0
bin	-0.36666666666667	0
bin	-0.33333333333333	0
bin	-0.3	0
bin	-0.26666666666667	0
bin	-0.23333333333333	0
bin	-0.2	0
bin	-0.16666666666667	0
bin	-0.13333333333333	0
bin	-0.1	0
bin	-0.066666666666667	0
bin	-0.033333333333333	0
bin	0	1
bin	0.033333333333333	0
bin	0.066666666666667	0
bin	0.1	0
bin	0.13333333333333	0
bin	0.16666666666667	0
bin	0.2	0
bin	0.23333333333333	0
bin	0.26666666666667	0
bin	0.3	0
bin	0.33333333333333	0
bin	0.36666666666667	0
bin	0.4	0
bin	0.43333333333333	0
bin	0.46666666666667	0
bin	0.5	0
scalar Net80211_aodv.host[7].wlan[0].radio 	bitrate:min 	54000000
attr interpolationmode  sample-hold
attr title  "tx bitrate, min"
attr unit  bps
scalar Net80211_aodv.host[7].wlan[0].radio 	bitrate:max 	54000000
attr interpolationmode  sample-hold
attr title  "tx bitrate, max"
attr unit  bps
scalar Net80211_aodv.host[7].wlan[0].radio 	bitrate:timeavg 	54000000
attr interpolationmode  sample-hold
attr title  "tx bitrate, timeavg"
attr unit  bps
scalar Net80211_aodv.host[7].udpApp[0] 	dropPk:count 	0
attr interpolationmode  none
attr source  dropPk
attr title  "packets dropped, count"
scalar Net80211_aodv.host[7].udpApp[0] 	dropPk:sum(packetBytes) 	0
attr interpolationmode  none
attr source  dropPk
attr title  "packets dropped, sum(packetBytes)"
scalar Net80211_aodv.host[7].udpApp[0] 	rcvdPk:count 	0
attr interpolationmode  none
attr source  rcvdPk
attr title  "packets received, count"
scalar Net80211_aodv.host[7].udpApp[0] 	rcvdPk:sum(packetBytes) 	0
attr interpolationmode  none
attr source  rcvdPk
attr title  "packets received, sum(packetBytes)"
scalar Net80211_aodv.host[7].udpApp[0] 	sentPk:count 	0
attr interpolationmode  none
attr source  sentPk
attr title  "packets sent, count"
scalar Net80211_aodv.host[7].udpApp[0] 	sentPk:sum(packetBytes) 	0
attr interpolationmode  none
attr source  sentPk
attr title  "packets sent, sum(packetBytes)"
scalar Net80211_aodv.host[7].udp 	droppedPkBadChecksum:count 	0
attr interpolationmode  none
attr title  "packets dropped (checksum error), count"
scalar Net80211_aodv.host[7].udp 	droppedPkWrongPort:count 	0
attr interpolationmode  none
attr title  "packets dropped (wrong port), count"
scalar Net80211_aodv.host[7].udp 	passedUpPk:count 	359
attr interpolationmode  none
attr title  "packets passed up, count"
scalar Net80211_aodv.host[7].udp 	rcvdPk:count 	359
attr interpolationmode  none
attr source  rcvdPk
attr title  "packets received, count"
scalar Net80211_aodv.host[7].udp 	rcvdPk:sum(packetBytes) 	8724
attr interpolationmode  none
attr source  rcvdPk
attr title  "packets received, sum(packetBytes)"
scalar Net80211_aodv.host[7].udp 	sentPk:count 	17
attr interpolationmode  none
attr source  sentPk
attr title  "packets sent, count"
scalar Net80211_aodv.host[7].udp 	sentPk:sum(packetBytes) 	250
attr interpolationmode  none
attr source  sentPk
attr title  "packets sent, sum(packetBytes)"
scalar Net80211_aodv.host[8].networkLayer.arp 	failedResolution:count 	0
attr title  "ARP failed resolutions, count"
scalar Net80211_aodv.host[8].networkLayer.arp 	initiatedResolution:count 	0
attr title  "ARP initiated resolutions, count"
scalar Net80211_aodv.host[8].networkLayer.arp 	sentReplies:count 	0
attr title  "ARP replies sent, count"
scalar Net80211_aodv.host[8].networkLayer.arp 	sentReq:count 	0
attr title  "ARP request sent, count"
scalar Net80211_aodv.host[8].lo0.lo 	passedUpPk:count 	0
attr interpolationmode  none
attr source  packetSentToUpper
attr title  "packets passed to higher layer, count"
scalar Net80211_aodv.host[8].lo0.lo 	passedUpPk:sum(packetBytes) 	0
attr interpolationmode  none
attr source  packetSentToUpper
attr title  "packets passed to higher layer, sum(packetBytes)"
scalar Net80211_aodv.host[8].lo0.lo 	rcvdPkFromHL:count 	0
attr interpolationmode  none
attr source  packetReceivedFromUpper
attr title  "packets received from higher layer, count"
scalar Net80211_aodv.host[8].lo0.lo 	rcvdPkFromHL:sum(packetBytes) 	0
attr interpolationmode  none
attr source  packetReceivedFromUpper
attr title  "packets received from higher layer, sum(packetBytes)"
scalar Net80211_aodv.host[8].lo0.lo 	droppedPkBitError:count 	0
attr interpolationmode  none
attr source  dropPkBitError
attr title  "packets dropped/bit error, count"
scalar Net80211_aodv.host[8].lo0.lo 	droppedPkBitError:sum(packetBytes) 	0
attr interpolationmode  none
attr source  dropPkBitError
attr title  "packets dropped/bit error, sum(packetBytes)"
scalar Net80211_aodv.host[8].wlan[0].mgmt 	dropPkByQueue:count 	0
attr interpolationmode  none
attr source  dropPkByQueue
attr title  "packets dropped by queue, count"
scalar Net80211_aodv.host[8].wlan[0].mgmt 	dropPkByQueue:sum(packetBytes) 	0
attr interpolationmode  none
attr source  dropPkByQueue
attr title  "packets dropped by queue, sum(packetBytes)"
scalar Net80211_aodv.host[8].wlan[0].mgmt 	dataQueueLen:max 	1
attr interpolationmode  sample-hold
attr title  "data queue length, max"
scalar Net80211_aodv.host[8].wlan[0].mgmt 	dataQueueLen:timeavg 	1.8897197563005e-05
attr interpolationmode  sample-hold
attr title  "data queue length, timeavg"
scalar Net80211_aodv.host[8].wlan[0].mac 	"number of received packets" 	0
scalar Net80211_aodv.host[8].wlan[0].mac 	"number of collisions" 	461
scalar Net80211_aodv.host[8].wlan[0].mac 	"number of internal collisions" 	0
scalar Net80211_aodv.host[8].wlan[0].mac 	"number of retry for AC 0" 	0
scalar Net80211_aodv.host[8].wlan[0].mac 	"sent and received bits" 	14400
scalar Net80211_aodv.host[8].wlan[0].mac 	"sent packet within AC 0" 	0
scalar Net80211_aodv.host[8].wlan[0].mac 	"sent in TXOP " 	0
scalar Net80211_aodv.host[8].wlan[0].mac 	"sentWithoutRetry AC 0" 	0
scalar Net80211_aodv.host[8].wlan[0].mac 	"numGivenUp AC 0" 	0
scalar Net80211_aodv.host[8].wlan[0].mac 	"numDropped AC 0" 	0
scalar Net80211_aodv.host[8].wlan[0].mac 	rcvdPkFromLL:count 	615
attr interpolationmode  none
attr source  packetReceivedFromLower
attr title  "packets received from lower layer, count"
scalar Net80211_aodv.host[8].wlan[0].mac 	rcvdPkFromLL:sum(packetBytes) 	52170
attr interpolationmode  none
attr source  packetReceivedFromLower
attr title  "packets received from lower layer, sum(packetBytes)"
scalar Net80211_aodv.host[8].wlan[0].mac 	sentDownPk:count 	23
attr interpolationmode  none
attr source  packetSentToLower
attr title  "packets sent to lower layer, count"
scalar Net80211_aodv.host[8].wlan[0].mac 	sentDownPk:sum(packetBytes) 	1800
attr interpolationmode  none
attr source  packetSentToLower
attr title  "packets sent to lower layer, sum(packetBytes)"
scalar Net80211_aodv.host[8].wlan[0].mac 	passedUpPk:count 	154
attr interpolationmode  none
attr source  packetSentToUpper
attr title  "packets passed to higher layer, count"
scalar Net80211_aodv.host[8].wlan[0].mac 	passedUpPk:sum(packetBytes) 	12566
attr interpolationmode  none
attr source  packetSentToUpper
attr title  "packets passed to higher layer, sum(packetBytes)"
scalar Net80211_aodv.host[8].wlan[0].mac 	rcvdPkFromHL:count 	23
attr interpolationmode  none
attr source  packetReceivedFromUpper
attr title  "packets received from higher layer, count"
scalar Net80211_aodv.host[8].wlan[0].mac 	rcvdPkFromHL:sum(packetBytes) 	1800
attr interpolationmode  none
attr source  packetReceivedFromUpper
attr title  "packets received from higher layer, sum(packetBytes)"
scalar Net80211_aodv.host[8].wlan[0].radio 	lossRate:min 	0.54
attr interpolationmode  backward-sample-hold
attr title  "packet loss rate, min"
scalar Net80211_aodv.host[8].wlan[0].radio 	lossRate:max 	0.88
attr interpolationmode  backward-sample-hold
attr title  "packet loss rate, max"
scalar Net80211_aodv.host[8].wlan[0].radio 	lossRate:timeavg 	0.74939231947898
attr interpolationmode  backward-sample-hold
attr title  "packet loss rate, timeavg"
scalar Net80211_aodv.host[8].wlan[0].radio 	radioState:count 	1356
attr interpolationmode  sample-hold
attr title  "radio state (enum), count"
statistic Net80211_aodv.host[8].wlan[0].radio 	channelNo:histogram
field count 1
field mean 0
field stddev -nan
field sum 0
field sqrsum 0
field min 0
field max 0
attr interpolationmode  sample-hold
attr title  "channel no, histogram"
bin	-INF	0
bin	-0.5	0
bin	-0.46666666666667	0
bin	-0.43333333333333	0
[...]
attr interpolationmode  backward-sample-hold
attr title  "packet loss rate, timeavg"
scalar Net80211_aodv.host[97].wlan[0].radio 	radioState:count 	1315
attr interpolationmode  sample-hold
attr title  "radio state (enum), count"
statistic Net80211_aodv.host[97].wlan[0].radio 	channelNo:histogram
field count 1
field mean 0
field stddev -nan
field sum 0
field sqrsum 0
field min 0
field max 0
attr interpolationmode  sample-hold
attr title  "channel no, histogram"
bin	-INF	0
bin	-0.5	0
bin	-0.46666666666667	0
bin	-0.43333333333333	0
bin	-0.4	0
bin	-0.36666666666667	0
bin	-0.33333333333333	0
bin	-0.3	0
bin	-0.26666666666667	0
bin	-0.23333333333333	0
bin	-0.2	0
bin	-0.16666666666667	0
bin	-0.13333333333333	0
bin	-0.1	0
bin	-0.066666666666667	0
bin	-0.033333333333333	0
bin	0	1
bin	0.033333333333333	0
bin	0.066666666666667	0
bin	0.1	0
bin	0.13333333333333	0
bin	0.16666666666667	0
bin	0.2	0
bin	0.23333333333333	0
bin	0.26666666666667	0
bin	0.3	0
bin	0.33333333333333	0
bin	0.36666666666667	0
bin	0.4	0
bin	0.43333333333333	0
bin	0.46666666666667	0
bin	0.5	0
scalar Net80211_aodv.host[97].wlan[0].radio 	bitrate:min 	54000000
attr interpolationmode  sample-hold
attr title  "tx bitrate, min"
attr unit  bps
scalar Net80211_aodv.host[97].wlan[0].radio 	bitrate:max 	54000000
attr interpolationmode  sample-hold
attr title  "tx bitrate, max"
attr unit  bps
scalar Net80211_aodv.host[97].wlan[0].radio 	bitrate:timeavg 	54000000
attr interpolationmode  sample-hold
attr title  "tx bitrate, timeavg"
attr unit  bps
scalar Net80211_aodv.host[97].udpApp[0] 	dropPk:count 	0
attr interpolationmode  none
attr source  dropPk
attr title  "packets dropped, count"
scalar Net80211_aodv.host[97].udpApp[0] 	dropPk:sum(packetBytes) 	0
attr interpolationmode  none
attr source  dropPk
attr title  "packets dropped, sum(packetBytes)"
scalar Net80211_aodv.host[97].udpApp[0] 	rcvdPk:count 	0
attr interpolationmode  none
attr source  rcvdPk
attr title  "packets received, count"
scalar Net80211_aodv.host[97].udpApp[0] 	rcvdPk:sum(packetBytes) 	0
attr interpolationmode  none
attr source  rcvdPk
attr title  "packets received, sum(packetBytes)"
scalar Net80211_aodv.host[97].udpApp[0] 	sentPk:count 	0
attr interpolationmode  none
attr source  sentPk
attr title  "packets sent, count"
scalar Net80211_aodv.host[97].udpApp[0] 	sentPk:sum(packetBytes) 	0
attr interpolationmode  none
attr source  sentPk
attr title  "packets sent, sum(packetBytes)"
scalar Net80211_aodv.host[97].udp 	droppedPkBadChecksum:count 	0
attr interpolationmode  none
attr title  "packets dropped (checksum error), count"
scalar Net80211_aodv.host[97].udp 	droppedPkWrongPort:count 	0
attr interpolationmode  none
attr title  "packets dropped (wrong port), count"
scalar Net80211_aodv.host[97].udp 	passedUpPk:count 	193
attr interpolationmode  none
attr title  "packets passed up, count"
scalar Net80211_aodv.host[97].udp 	rcvdPk:count 	193
attr interpolationmode  none
attr source  rcvdPk
attr title  "packets received, count"
scalar Net80211_aodv.host[97].udp 	rcvdPk:sum(packetBytes) 	5002
attr interpolationmode  none
attr source  rcvdPk
attr title  "packets received, sum(packetBytes)"
scalar Net80211_aodv.host[97].udp 	sentPk:count 	19
attr interpolationmode  none
attr source  sentPk
attr title  "packets sent, count"
scalar Net80211_aodv.host[97].udp 	sentPk:sum(packetBytes) 	304
attr interpolationmode  none
attr source  sentPk
attr title  "packets sent, sum(packetBytes)"
scalar Net80211_aodv.host[98].networkLayer.arp 	failedResolution:count 	0
attr title  "ARP failed resolutions, count"
scalar Net80211_aodv.host[98].networkLayer.arp 	initiatedResolution:count 	0
attr title  "ARP initiated resolutions, count"
scalar Net80211_aodv.host[98].networkLayer.arp 	sentReplies:count 	0
attr title  "ARP replies sent, count"
scalar Net80211_aodv.host[98].networkLayer.arp 	sentReq:count 	0
attr title  "ARP request sent, count"
scalar Net80211_aodv.host[98].lo0.lo 	passedUpPk:count 	0
attr interpolationmode  none
attr source  packetSentToUpper
attr title  "packets passed to higher layer, count"
scalar Net80211_aodv.host[98].lo0.lo 	passedUpPk:sum(packetBytes) 	0
attr interpolationmode  none
attr source  packetSentToUpper
attr title  "packets passed to higher layer, sum(packetBytes)"
scalar Net80211_aodv.host[98].lo0.lo 	rcvdPkFromHL:count 	0
attr interpolationmode  none
attr source  packetReceivedFromUpper
attr title  "packets received from higher layer, count"
scalar Net80211_aodv.host[98].lo0.lo 	rcvdPkFromHL:sum(packetBytes) 	0
attr interpolationmode  none
attr source  packetReceivedFromUpper
attr title  "packets received from higher layer, sum(packetBytes)"
scalar Net80211_aodv.host[98].lo0.lo 	droppedPkBitError:count 	0
attr interpolationmode  none
attr source  dropPkBitError
attr title  "packets dropped/bit error, count"
scalar Net80211_aodv.host[98].lo0.lo 	droppedPkBitError:sum(packetBytes) 	0
attr interpolationmode  none
attr source  dropPkBitError
attr title  "packets dropped/bit error, sum(packetBytes)"
scalar Net80211_aodv.host[98].wlan[0].mgmt 	dropPkByQueue:count 	0
attr interpolationmode  none
attr source  dropPkByQueue
attr title  "packets dropped by queue, count"
scalar Net80211_aodv.host[98].wlan[0].mgmt 	dropPkByQueue:sum(packetBytes) 	0
attr interpolationmode  none
attr source  dropPkByQueue
attr title  "packets dropped by queue, sum(packetBytes)"
scalar Net80211_aodv.host[98].wlan[0].mgmt 	dataQueueLen:max 	0
attr interpolationmode  sample-hold
attr title  "data queue length, max"
scalar Net80211_aodv.host[98].wlan[0].mgmt 	dataQueueLen:timeavg 	0
attr interpolationmode  sample-hold
attr title  "data queue length, timeavg"
scalar Net80211_aodv.host[98].wlan[0].mac 	"number of received packets" 	0
scalar Net80211_aodv.host[98].wlan[0].mac 	"number of collisions" 	393
scalar Net80211_aodv.host[98].wlan[0].mac 	"number of internal collisions" 	0
scalar Net80211_aodv.host[98].wlan[0].mac 	"number of retry for AC 0" 	0
scalar Net80211_aodv.host[98].wlan[0].mac 	"sent and received bits" 	16800
scalar Net80211_aodv.host[98].wlan[0].mac 	"sent packet within AC 0" 	0
scalar Net80211_aodv.host[98].wlan[0].mac 	"sent in TXOP " 	0
scalar Net80211_aodv.host[98].wlan[0].mac 	"sentWithoutRetry AC 0" 	0
scalar Net80211_aodv.host[98].wlan[0].mac 	"numGivenUp AC 0" 	0
scalar Net80211_aodv.host[98].wlan[0].mac 	"numDropped AC 0" 	0
scalar Net80211_aodv.host[98].wlan[0].mac 	rcvdPkFromLL:count 	549
attr interpolationmode  none
attr source  packetReceivedFromLower
attr title  "packets received from lower layer, count"
scalar Net80211_aodv.host[98].wlan[0].mac 	rcvdPkFromLL:sum(packetBytes) 	43788
attr interpolationmode  none
attr source  packetReceivedFromLower
attr title  "packets received from lower layer, sum(packetBytes)"
scalar Net80211_aodv.host[98].wlan[0].mac 	sentDownPk:count 	30
attr interpolationmode  none
attr source  packetSentToLower
attr title  "packets sent to lower layer, count"
scalar Net80211_aodv.host[98].wlan[0].mac 	sentDownPk:sum(packetBytes) 	2100
attr interpolationmode  none
attr source  packetSentToLower
attr title  "packets sent to lower layer, sum(packetBytes)"
scalar Net80211_aodv.host[98].wlan[0].mac 	passedUpPk:count 	156
attr interpolationmode  none
attr source  packetSentToUpper
attr title  "packets passed to higher layer, count"
scalar Net80211_aodv.host[98].wlan[0].mac 	passedUpPk:sum(packetBytes) 	12212
attr interpolationmode  none
attr source  packetSentToUpper
attr title  "packets passed to higher layer, sum(packetBytes)"
scalar Net80211_aodv.host[98].wlan[0].mac 	rcvdPkFromHL:count 	30
attr interpolationmode  none
attr source  packetReceivedFromUpper
attr title  "packets received from higher layer, count"
scalar Net80211_aodv.host[98].wlan[0].mac 	rcvdPkFromHL:sum(packetBytes) 	2100
attr interpolationmode  none
attr source  packetReceivedFromUpper
attr title  "packets received from higher layer, sum(packetBytes)"
scalar Net80211_aodv.host[98].wlan[0].radio 	lossRate:min 	0.58
attr interpolationmode  backward-sample-hold
attr title  "packet loss rate, min"
scalar Net80211_aodv.host[98].wlan[0].radio 	lossRate:max 	0.92
attr interpolationmode  backward-sample-hold
attr title  "packet loss rate, max"
scalar Net80211_aodv.host[98].wlan[0].radio 	lossRate:timeavg 	0.75560291942316
attr interpolationmode  backward-sample-hold
attr title  "packet loss rate, timeavg"
scalar Net80211_aodv.host[98].wlan[0].radio 	radioState:count 	1470
attr interpolationmode  sample-hold
attr title  "radio state (enum), count"
statistic Net80211_aodv.host[98].wlan[0].radio 	channelNo:histogram
field count 1
field mean 0
field stddev -nan
field sum 0
field sqrsum 0
field min 0
field max 0
attr interpolationmode  sample-hold
attr title  "channel no, histogram"
bin	-INF	0
bin	-0.5	0
bin	-0.46666666666667	0
bin	-0.43333333333333	0
bin	-0.4	0
bin	-0.36666666666667	0
bin	-0.33333333333333	0
bin	-0.3	0
bin	-0.26666666666667	0
bin	-0.23333333333333	0
bin	-0.2	0
bin	-0.16666666666667	0
bin	-0.13333333333333	0
bin	-0.1	0
bin	-0.066666666666667	0
bin	-0.033333333333333	0
bin	0	1
bin	0.033333333333333	0
bin	0.066666666666667	0
bin	0.1	0
bin	0.13333333333333	0
bin	0.16666666666667	0
bin	0.2	0
bin	0.23333333333333	0
bin	0.26666666666667	0
bin	0.3	0
bin	0.33333333333333	0
bin	0.36666666666667	0
bin	0.4	0
bin	0.43333333333333	0
bin	0.46666666666667	0
bin	0.5	0
scalar Net80211_aodv.host[98].wlan[0].radio 	bitrate:min 	54000000
attr interpolationmode  sample-hold
attr title  "tx bitrate, min"
attr unit  bps
scalar Net80211_aodv.host[98].wlan[0].radio 	bitrate:max 	54000000
attr interpolationmode  sample-hold
attr title  "tx bitrate, max"
attr unit  bps
scalar Net80211_aodv.host[98].wlan[0].radio 	bitrate:timeavg 	54000000
attr interpolationmode  sample-hold
attr title  "tx bitrate, timeavg"
attr unit  bps
scalar Net80211_aodv.host[98].udpApp[0] 	dropPk:count 	0
attr interpolationmode  none
attr source  dropPk
attr title  "packets dropped, count"
scalar Net80211_aodv.host[98].udpApp[0] 	dropPk:sum(packetBytes) 	0
attr interpolationmode  none
attr source  dropPk
attr title  "packets dropped, sum(packetBytes)"
scalar Net80211_aodv.host[98].udpApp[0] 	rcvdPk:count 	0
attr interpolationmode  none
attr source  rcvdPk
attr title  "packets received, count"
scalar Net80211_aodv.host[98].udpApp[0] 	rcvdPk:sum(packetBytes) 	0
attr interpolationmode  none
attr source  rcvdPk
attr title  "packets received, sum(packetBytes)"
scalar Net80211_aodv.host[98].udpApp[0] 	sentPk:count 	0
attr interpolationmode  none
attr source  sentPk
attr title  "packets sent, count"
scalar Net80211_aodv.host[98].udpApp[0] 	sentPk:sum(packetBytes) 	0
attr interpolationmode  none
attr source  sentPk
attr title  "packets sent, sum(packetBytes)"
scalar Net80211_aodv.host[98].udp 	droppedPkBadChecksum:count 	0
attr interpolationmode  none
attr title  "packets dropped (checksum error), count"
scalar Net80211_aodv.host[98].udp 	droppedPkWrongPort:count 	0
attr interpolationmode  none
attr title  "packets dropped (wrong port), count"
scalar Net80211_aodv.host[98].udp 	passedUpPk:count 	156
attr interpolationmode  none
attr title  "packets passed up, count"
scalar Net80211_aodv.host[98].udp 	rcvdPk:count 	156
attr interpolationmode  none
attr source  rcvdPk
attr title  "packets received, count"
scalar Net80211_aodv.host[98].udp 	rcvdPk:sum(packetBytes) 	2540
attr interpolationmode  none
attr source  rcvdPk
attr title  "packets received, sum(packetBytes)"
scalar Net80211_aodv.host[98].udp 	sentPk:count 	30
attr interpolationmode  none
attr source  sentPk
attr title  "packets sent, count"
scalar Net80211_aodv.host[98].udp 	sentPk:sum(packetBytes) 	240
attr interpolationmode  none
attr source  sentPk
attr title  "packets sent, sum(packetBytes)"
scalar Net80211_aodv.host[99].networkLayer.arp 	failedResolution:count 	0
attr title  "ARP failed resolutions, count"
scalar Net80211_aodv.host[99].networkLayer.arp 	initiatedResolution:count 	0
attr title  "ARP initiated resolutions, count"
scalar Net80211_aodv.host[99].networkLayer.arp 	sentReplies:count 	0
attr title  "ARP replies sent, count"
scalar Net80211_aodv.host[99].networkLayer.arp 	sentReq:count 	0
attr title  "ARP request sent, count"
scalar Net80211_aodv.host[99].lo0.lo 	passedUpPk:count 	0
attr interpolationmode  none
attr source  packetSentToUpper
attr title  "packets passed to higher layer, count"
scalar Net80211_aodv.host[99].lo0.lo 	passedUpPk:sum(packetBytes) 	0
attr interpolationmode  none
attr source  packetSentToUpper
attr title  "packets passed to higher layer, sum(packetBytes)"
scalar Net80211_aodv.host[99].lo0.lo 	rcvdPkFromHL:count 	0
attr interpolationmode  none
attr source  packetReceivedFromUpper
attr title  "packets received from higher layer, count"
scalar Net80211_aodv.host[99].lo0.lo 	rcvdPkFromHL:sum(packetBytes) 	0
attr interpolationmode  none
attr source  packetReceivedFromUpper
attr title  "packets received from higher layer, sum(packetBytes)"
scalar Net80211_aodv.host[99].lo0.lo 	droppedPkBitError:count 	0
attr interpolationmode  none
attr source  dropPkBitError
attr title  "packets dropped/bit error, count"
scalar Net80211_aodv.host[99].lo0.lo 	droppedPkBitError:sum(packetBytes) 	0
attr interpolationmode  none
attr source  dropPkBitError
attr title  "packets dropped/bit error, sum(packetBytes)"
scalar Net80211_aodv.host[99].wlan[0].mgmt 	dropPkByQueue:count 	0
attr interpolationmode  none
attr source  dropPkByQueue
attr title  "packets dropped by queue, count"
scalar Net80211_aodv.host[99].wlan[0].mgmt 	dropPkByQueue:sum(packetBytes) 	0
attr interpolationmode  none
attr source  dropPkByQueue
attr title  "packets dropped by queue, sum(packetBytes)"
scalar Net80211_aodv.host[99].wlan[0].mgmt 	dataQueueLen:max 	0
attr interpolationmode  sample-hold
attr title  "data queue length, max"
scalar Net80211_aodv.host[99].wlan[0].mgmt 	dataQueueLen:timeavg 	0
attr interpolationmode  sample-hold
attr title  "data queue length, timeavg"
scalar Net80211_aodv.host[99].wlan[0].mac 	"number of received packets" 	0
scalar Net80211_aodv.host[99].wlan[0].mac 	"number of collisions" 	118
scalar Net80211_aodv.host[99].wlan[0].mac 	"number of internal collisions" 	0
scalar Net80211_aodv.host[99].wlan[0].mac 	"number of retry for AC 0" 	0
scalar Net80211_aodv.host[99].wlan[0].mac 	"sent and received bits" 	19600
scalar Net80211_aodv.host[99].wlan[0].mac 	"sent packet within AC 0" 	0
scalar Net80211_aodv.host[99].wlan[0].mac 	"sent in TXOP " 	0
scalar Net80211_aodv.host[99].wlan[0].mac 	"sentWithoutRetry AC 0" 	0
scalar Net80211_aodv.host[99].wlan[0].mac 	"numGivenUp AC 0" 	0
scalar Net80211_aodv.host[99].wlan[0].mac 	"numDropped AC 0" 	0
scalar Net80211_aodv.host[99].wlan[0].mac 	rcvdPkFromLL:count 	489
attr interpolationmode  none
attr source  packetReceivedFromLower
attr title  "packets received from lower layer, count"
scalar Net80211_aodv.host[99].wlan[0].mac 	rcvdPkFromLL:sum(packetBytes) 	40158
attr interpolationmode  none
attr source  packetReceivedFromLower
attr title  "packets received from lower layer, sum(packetBytes)"
scalar Net80211_aodv.host[99].wlan[0].mac 	sentDownPk:count 	35
attr interpolationmode  none
attr source  packetSentToLower
attr title  "packets sent to lower layer, count"
scalar Net80211_aodv.host[99].wlan[0].mac 	sentDownPk:sum(packetBytes) 	2450
attr interpolationmode  none
attr source  packetSentToLower
attr title  "packets sent to lower layer, sum(packetBytes)"
scalar Net80211_aodv.host[99].wlan[0].mac 	passedUpPk:count 	371
attr interpolationmode  none
attr source  packetSentToUpper
attr title  "packets passed to higher layer, count"
scalar Net80211_aodv.host[99].wlan[0].mac 	passedUpPk:sum(packetBytes) 	30378
attr interpolationmode  none
attr source  packetSentToUpper
attr title  "packets passed to higher layer, sum(packetBytes)"
scalar Net80211_aodv.host[99].wlan[0].mac 	rcvdPkFromHL:count 	35
attr interpolationmode  none
attr source  packetReceivedFromUpper
attr title  "packets received from higher layer, count"
scalar Net80211_aodv.host[99].wlan[0].mac 	rcvdPkFromHL:sum(packetBytes) 	2450
attr interpolationmode  none
attr source  packetReceivedFromUpper
attr title  "packets received from higher layer, sum(packetBytes)"
scalar Net80211_aodv.host[99].wlan[0].radio 	lossRate:min 	0.12
attr interpolationmode  backward-sample-hold
attr title  "packet loss rate, min"
scalar Net80211_aodv.host[99].wlan[0].radio 	lossRate:max 	0.44
attr interpolationmode  backward-sample-hold
attr title  "packet loss rate, max"
scalar Net80211_aodv.host[99].wlan[0].radio 	lossRate:timeavg 	0.23245701713621
attr interpolationmode  backward-sample-hold
attr title  "packet loss rate, timeavg"
scalar Net80211_aodv.host[99].wlan[0].radio 	radioState:count 	1455
attr interpolationmode  sample-hold
attr title  "radio state (enum), count"
statistic Net80211_aodv.host[99].wlan[0].radio 	channelNo:histogram
field count 1
field mean 0
field stddev -nan
field sum 0
field sqrsum 0
field min 0
field max 0
attr interpolationmode  sample-hold
attr title  "channel no, histogram"
bin	-INF	0
bin	-0.5	0
bin	-0.46666666666667	0
bin	-0.43333333333333	0
bin	-0.4	0
bin	-0.36666666666667	0
bin	-0.33333333333333	0
bin	-0.3	0
bin	-0.26666666666667	0
bin	-0.23333333333333	0
bin	-0.2	0
bin	-0.16666666666667	0
bin	-0.13333333333333	0
bin	-0.1	0
bin	-0.066666666666667	0
bin	-0.033333333333333	0
bin	0	1
bin	0.033333333333333	0
bin	0.066666666666667	0
bin	0.1	0
bin	0.13333333333333	0
bin	0.16666666666667	0
bin	0.2	0
bin	0.23333333333333	0
bin	0.26666666666667	0
bin	0.3	0
bin	0.33333333333333	0
bin	0.36666666666667	0
bin	0.4	0
bin	0.43333333333333	0
bin	0.46666666666667	0
bin	0.5	0
scalar Net80211_aodv.host[99].wlan[0].radio 	bitrate:min 	54000000
attr interpolationmode  sample-hold
attr title  "tx bitrate, min"
attr unit  bps
scalar Net80211_aodv.host[99].wlan[0].radio 	bitrate:max 	54000000
attr interpolationmode  sample-hold
attr title  "tx bitrate, max"
attr unit  bps
scalar Net80211_aodv.host[99].wlan[0].radio 	bitrate:timeavg 	54000000
attr interpolationmode  sample-hold
attr title  "tx bitrate, timeavg"
attr unit  bps
scalar Net80211_aodv.host[99].udpApp[0] 	dropPk:count 	0
attr interpolationmode  none
attr source  dropPk
attr title  "packets dropped, count"
scalar Net80211_aodv.host[99].udpApp[0] 	dropPk:sum(packetBytes) 	0
attr interpolationmode  none
attr source  dropPk
attr title  "packets dropped, sum(packetBytes)"
scalar Net80211_aodv.host[99].udpApp[0] 	rcvdPk:count 	0
attr interpolationmode  none
attr source  rcvdPk
attr title  "packets received, count"
scalar Net80211_aodv.host[99].udpApp[0] 	rcvdPk:sum(packetBytes) 	0
attr interpolationmode  none
attr source  rcvdPk
attr title  "packets received, sum(packetBytes)"
scalar Net80211_aodv.host[99].udpApp[0] 	sentPk:count 	0
attr interpolationmode  none
attr source  sentPk
attr title  "packets sent, count"
scalar Net80211_aodv.host[99].udpApp[0] 	sentPk:sum(packetBytes) 	0
attr interpolationmode  none
attr source  sentPk
attr title  "packets sent, sum(packetBytes)"
scalar Net80211_aodv.host[99].udp 	droppedPkBadChecksum:count 	0
attr interpolationmode  none
attr title  "packets dropped (checksum error), count"
scalar Net80211_aodv.host[99].udp 	droppedPkWrongPort:count 	0
attr interpolationmode  none
attr title  "packets dropped (wrong port), count"
scalar Net80211_aodv.host[99].udp 	passedUpPk:count 	371
attr interpolationmode  none
attr title  "packets passed up, count"
scalar Net80211_aodv.host[99].udp 	rcvdPk:count 	371
attr interpolationmode  none
attr source  rcvdPk
attr title  "packets received, count"
scalar Net80211_aodv.host[99].udp 	rcvdPk:sum(packetBytes) 	7376
attr interpolationmode  none
attr source  rcvdPk
attr title  "packets received, sum(packetBytes)"
scalar Net80211_aodv.host[99].udp 	sentPk:count 	35
attr interpolationmode  none
attr source  sentPk
attr title  "packets sent, count"
scalar Net80211_aodv.host[99].udp 	sentPk:sum(packetBytes) 	280
attr interpolationmode  none
attr source  sentPk
attr title  "packets sent, sum(packetBytes)"
