file 291719 1480793502                                          
version 2
run AODVUU-0-20161203-16:04:54-19075
attr configname AODVUU
attr datetime 20161203-16:04:54
attr experiment AODVUU
attr inifile omnetpp.ini
attr iterationvars ""
attr iterationvars2 $repetition=0
attr measurement ""
attr network ncorp_inet.simulations.codeorexperimentos.Net80211_aodv
attr processid 19075
attr repetition 0
attr replication #0
attr resultdir results
attr runnumber 0
attr seedset 0
param **.arpType "\"GlobalARP\""
param **.broadcastDelay uniform(0s,0.005s)
param **.constraintAreaMaxX 4000m
param **.constraintAreaMaxY 4000m
param **.constraintAreaMaxZ 0m
param **.constraintAreaMinX 0m
param **.constraintAreaMinY 0m
param **.constraintAreaMinZ 0m
param **.drawCoverage false
param **.fixhost.mobility.initialX 999m
param **.fixhost.mobility.initialY 999m
param **.fixhost.numUdpApps 1
param **.fixhost.udpApp[*].typename "\"UDPSink\""
param **.fixhost.udpApp[0].localPort 1234
param **.host*.mobilityType "\"StationaryMobility\""
param **.host[*].udpApp[*].typename "\"UDPBasicBurst\""
param **.host[0].numUdpApps 1
param **.ip.procDelay 10us
param **.llfeedback true
param **.mobility.initFromDisplayString false
param **.numTcpApps 0
param **.routingProtocol "\"AODVUU\""
param **.udpApp[0].burstDuration 1s
param **.udpApp[0].chooseDestAddrMode "\"perBurst\""
param **.udpApp[0].delayLimit 20s
param **.udpApp[0].destAddrRNG 0
param **.udpApp[0].destAddresses "\"fixhost\""
param **.udpApp[0].destPort 1234
param **.udpApp[0].localPort 1234
param **.udpApp[0].messageLength 1500B
param **.udpApp[0].sendInterval 0.003125s
param **.udpApp[0].sleepDuration 0s
param **.udpApp[0].startTime 10s
param **.udpApp[0].stopTime 10.1s
param **.wlan*.bitrate 54Mbps
param **.wlan*.mac.EDCA false
param **.wlan*.mac.basicBitrate 6Mbps
param **.wlan*.mac.cwMinBroadcast 31
param **.wlan*.mac.cwMinData 31
param **.wlan*.mac.maxQueueSize 14
param **.wlan*.mac.retryLimit 7
param **.wlan*.mac.rtsThresholdBytes 3000B
param **.wlan*.mgmt.frameCapacity 10
param **.wlan*.opMode "\"g\""
param **.wlan*.radio.receiver.energyDetection -90dBm
param **.wlan*.radio.receiver.errorModel.berTableFile "\"per_table_80211g_Trivellato.dat\""
param **.wlan*.radio.receiver.errorModelType "\"Ieee80211BerTableErrorModel\""
param **.wlan*.radio.receiver.sensitivity -90dBm
param **.wlan*.radio.transmitter.power 2.0mW
param **.wlan*.typename "\"Ieee80211Nic\""
param *.numHosts 100
param *.radioMedium.mediumLimitCache.maxTransmissionPower 2.0mW

vector 21  Net80211_aodv.host[0].wlan[0].mac.ctn[0]  state:vector  ETV
attr interpolationmode  none
attr source  stateChanged
attr title  "contention state, vector"
vector 33  Net80211_aodv.host[1].wlan[0].mac.ctn[0]  state:vector  ETV
attr interpolationmode  none
attr source  stateChanged
attr title  "contention state, vector"
vector 45  Net80211_aodv.host[2].wlan[0].mac.ctn[0]  state:vector  ETV
attr interpolationmode  none
attr source  stateChanged
attr title  "contention state, vector"
vector 57  Net80211_aodv.host[3].wlan[0].mac.ctn[0]  state:vector  ETV
attr interpolationmode  none
attr source  stateChanged
attr title  "contention state, vector"
vector 69  Net80211_aodv.host[4].wlan[0].mac.ctn[0]  state:vector  ETV
attr interpolationmode  none
attr source  stateChanged
attr title  "contention state, vector"
vector 81  Net80211_aodv.host[5].wlan[0].mac.ctn[0]  state:vector  ETV
attr interpolationmode  none
attr source  stateChanged
attr title  "contention state, vector"
vector 93  Net80211_aodv.host[6].wlan[0].mac.ctn[0]  state:vector  ETV
attr interpolationmode  none
attr source  stateChanged
attr title  "contention state, vector"
vector 105  Net80211_aodv.host[7].wlan[0].mac.ctn[0]  state:vector  ETV
attr interpolationmode  none
attr source  stateChanged
attr title  "contention state, vector"
vector 117  Net80211_aodv.host[8].wlan[0].mac.ctn[0]  state:vector  ETV
attr interpolationmode  none
attr source  stateChanged
attr title  "contention state, vector"
vector 129  Net80211_aodv.host[9].wlan[0].mac.ctn[0]  state:vector  ETV
attr interpolationmode  none
attr source  stateChanged
attr title  "contention state, vector"
vector 141  Net80211_aodv.host[10].wlan[0].mac.ctn[0]  state:vector  ETV
attr interpolationmode  none
attr source  stateChanged
attr title  "contention state, vector"
vector 153  Net80211_aodv.host[11].wlan[0].mac.ctn[0]  state:vector  ETV
attr interpolationmode  none
attr source  stateChanged
attr title  "contention state, vector"
vector 165  Net80211_aodv.host[12].wlan[0].mac.ctn[0]  state:vector  ETV
attr interpolationmode  none
attr source  stateChanged
attr title  "contention state, vector"
vector 177  Net80211_aodv.host[13].wlan[0].mac.ctn[0]  state:vector  ETV
attr interpolationmode  none
attr source  stateChanged
attr title  "contention state, vector"
vector 189  Net80211_aodv.host[14].wlan[0].mac.ctn[0]  state:vector  ETV
attr interpolationmode  none
attr source  stateChanged
attr title  "contention state, vector"
vector 201  Net80211_aodv.host[15].wlan[0].mac.ctn[0]  state:vector  ETV
attr interpolationmode  none
attr source  stateChanged
attr title  "contention state, vector"
vector 213  Net80211_aodv.host[16].wlan[0].mac.ctn[0]  state:vector  ETV
attr interpolationmode  none
attr source  stateChanged
attr title  "contention state, vector"
vector 225  Net80211_aodv.host[17].wlan[0].mac.ctn[0]  state:vector  ETV
attr interpolationmode  none
attr source  stateChanged
attr title  "contention state, vector"
vector 237  Net80211_aodv.host[18].wlan[0].mac.ctn[0]  state:vector  ETV
attr interpolationmode  none
attr source  stateChanged
attr title  "contention state, vector"
vector 249  Net80211_aodv.host[19].wlan[0].mac.ctn[0]  state:vector  ETV
attr interpolationmode  none
attr source  stateChanged
attr title  "contention state, vector"
vector 261  Net80211_aodv.host[20].wlan[0].mac.ctn[0]  state:vector  ETV
attr interpolationmode  none
attr source  stateChanged
attr title  "contention state, vector"
vector 273  Net80211_aodv.host[21].wlan[0].mac.ctn[0]  state:vector  ETV
attr interpolationmode  none
attr source  stateChanged
attr title  "contention state, vector"
vector 285  Net80211_aodv.host[22].wlan[0].mac.ctn[0]  state:vector  ETV
attr interpolationmode  none
attr source  stateChanged
attr title  "contention state, vector"
vector 297  Net80211_aodv.host[23].wlan[0].mac.ctn[0]  state:vector  ETV
attr interpolationmode  none
attr source  stateChanged
attr title  "contention state, vector"
vector 309  Net80211_aodv.host[24].wlan[0].mac.ctn[0]  state:vector  ETV
attr interpolationmode  none
attr source  stateChanged
attr title  "contention state, vector"
vector 321  Net80211_aodv.host[25].wlan[0].mac.ctn[0]  state:vector  ETV
attr interpolationmode  none
attr source  stateChanged
attr title  "contention state, vector"
vector 333  Net80211_aodv.host[26].wlan[0].mac.ctn[0]  state:vector  ETV
attr interpolationmode  none
attr source  stateChanged
attr title  "contention state, vector"
vector 345  Net80211_aodv.host[27].wlan[0].mac.ctn[0]  state:vector  ETV
attr interpolationmode  none
attr source  stateChanged
attr title  "contention state, vector"
vector 357  Net80211_aodv.host[28].wlan[0].mac.ctn[0]  state:vector  ETV
attr interpolationmode  none
attr source  stateChanged
attr title  "contention state, vector"
vector 369  Net80211_aodv.host[29].wlan[0].mac.ctn[0]  state:vector  ETV
attr interpolationmode  none
attr source  stateChanged
attr title  "contention state, vector"
vector 381  Net80211_aodv.host[30].wlan[0].mac.ctn[0]  state:vector  ETV
attr interpolationmode  none
attr source  stateChanged
attr title  "contention state, vector"
vector 393  Net80211_aodv.host[31].wlan[0].mac.ctn[0]  state:vector  ETV
attr interpolationmode  none
attr source  stateChanged
attr title  "contention state, vector"
vector 405  Net80211_aodv.host[32].wlan[0].mac.ctn[0]  state:vector  ETV
attr interpolationmode  none
attr source  stateChanged
attr title  "contention state, vector"
vector 417  Net80211_aodv.host[33].wlan[0].mac.ctn[0]  state:vector  ETV
attr interpolationmode  none
attr source  stateChanged
attr title  "contention state, vector"
vector 429  Net80211_aodv.host[34].wlan[0].mac.ctn[0]  state:vector  ETV
attr interpolationmode  none
attr source  stateChanged
attr title  "contention state, vector"
vector 441  Net80211_aodv.host[35].wlan[0].mac.ctn[0]  state:vector  ETV
attr interpolationmode  none
attr source  stateChanged
attr title  "contention state, vector"
vector 453  Net80211_aodv.host[36].wlan[0].mac.ctn[0]  state:vector  ETV
attr interpolationmode  none
attr source  stateChanged
attr title  "contention state, vector"
vector 465  Net80211_aodv.host[37].wlan[0].mac.ctn[0]  state:vector  ETV
attr interpolationmode  none
attr source  stateChanged
attr title  "contention state, vector"
vector 477  Net80211_aodv.host[38].wlan[0].mac.ctn[0]  state:vector  ETV
attr interpolationmode  none
attr source  stateChanged
attr title  "contention state, vector"
vector 489  Net80211_aodv.host[39].wlan[0].mac.ctn[0]  state:vector  ETV
attr interpolationmode  none
attr source  stateChanged
attr title  "contention state, vector"
vector 501  Net80211_aodv.host[40].wlan[0].mac.ctn[0]  state:vector  ETV
attr interpolationmode  none
attr source  stateChanged
attr title  "contention state, vector"
vector 513  Net80211_aodv.host[41].wlan[0].mac.ctn[0]  state:vector  ETV
attr interpolationmode  none
attr source  stateChanged
attr title  "contention state, vector"
vector 525  Net80211_aodv.host[42].wlan[0].mac.ctn[0]  state:vector  ETV
attr interpolationmode  none
attr source  stateChanged
attr title  "contention state, vector"
vector 537  Net80211_aodv.host[43].wlan[0].mac.ctn[0]  state:vector  ETV
attr interpolationmode  none
attr source  stateChanged
attr title  "contention state, vector"
vector 549  Net80211_aodv.host[44].wlan[0].mac.ctn[0]  state:vector  ETV
attr interpolationmode  none
attr source  stateChanged
attr title  "contention state, vector"
vector 561  Net80211_aodv.host[45].wlan[0].mac.ctn[0]  state:vector  ETV
attr interpolationmode  none
attr source  stateChanged
attr title  "contention state, vector"
vector 573  Net80211_aodv.host[46].wlan[0].mac.ctn[0]  state:vector  ETV
attr interpolationmode  none
attr source  stateChanged
attr title  "contention state, vector"
vector 585  Net80211_aodv.host[47].wlan[0].mac.ctn[0]  state:vector  ETV
attr interpolationmode  none
attr source  stateChanged
attr title  "contention state, vector"
vector 597  Net80211_aodv.host[48].wlan[0].mac.ctn[0]  state:vector  ETV
attr interpolationmode  none
attr source  stateChanged
attr title  "contention state, vector"
vector 609  Net80211_aodv.host[49].wlan[0].mac.ctn[0]  state:vector  ETV
attr interpolationmode  none
attr source  stateChanged
attr title  "contention state, vector"
vector 621  Net80211_aodv.host[50].wlan[0].mac.ctn[0]  state:vector  ETV
attr interpolationmode  none
attr source  stateChanged
attr title  "contention state, vector"
vector 633  Net80211_aodv.host[51].wlan[0].mac.ctn[0]  state:vector  ETV
attr interpolationmode  none
attr source  stateChanged
attr title  "contention state, vector"
vector 645  Net80211_aodv.host[52].wlan[0].mac.ctn[0]  state:vector  ETV
attr interpolationmode  none
attr source  stateChanged
attr title  "contention state, vector"
vector 657  Net80211_aodv.host[53].wlan[0].mac.ctn[0]  state:vector  ETV
attr interpolationmode  none
attr source  stateChanged
attr title  "contention state, vector"
vector 669  Net80211_aodv.host[54].wlan[0].mac.ctn[0]  state:vector  ETV
attr interpolationmode  none
attr source  stateChanged
attr title  "contention state, vector"
vector 681  Net80211_aodv.host[55].wlan[0].mac.ctn[0]  state:vector  ETV
attr interpolationmode  none
attr source  stateChanged
attr title  "contention state, vector"
vector 693  Net80211_aodv.host[56].wlan[0].mac.ctn[0]  state:vector  ETV
attr interpolationmode  none
attr source  stateChanged
attr title  "contention state, vector"
vector 705  Net80211_aodv.host[57].wlan[0].mac.ctn[0]  state:vector  ETV
attr interpolationmode  none
attr source  stateChanged
attr title  "contention state, vector"
vector 717  Net80211_aodv.host[58].wlan[0].mac.ctn[0]  state:vector  ETV
attr interpolationmode  none
attr source  stateChanged
attr title  "contention state, vector"
vector 729  Net80211_aodv.host[59].wlan[0].mac.ctn[0]  state:vector  ETV
attr interpolationmode  none
attr source  stateChanged
attr title  "contention state, vector"
vector 741  Net80211_aodv.host[60].wlan[0].mac.ctn[0]  state:vector  ETV
attr interpolationmode  none
attr source  stateChanged
attr title  "contention state, vector"
vector 753  Net80211_aodv.host[61].wlan[0].mac.ctn[0]  state:vector  ETV
attr interpolationmode  none
attr source  stateChanged
attr title  "contention state, vector"
vector 765  Net80211_aodv.host[62].wlan[0].mac.ctn[0]  state:vector  ETV
attr interpolationmode  none
attr source  stateChanged
attr title  "contention state, vector"
vector 777  Net80211_aodv.host[63].wlan[0].mac.ctn[0]  state:vector  ETV
attr interpolationmode  none
attr source  stateChanged
attr title  "contention state, vector"
vector 789  Net80211_aodv.host[64].wlan[0].mac.ctn[0]  state:vector  ETV
attr interpolationmode  none
attr source  stateChanged
attr title  "contention state, vector"
vector 801  Net80211_aodv.host[65].wlan[0].mac.ctn[0]  state:vector  ETV
attr interpolationmode  none
attr source  stateChanged
attr title  "contention state, vector"
vector 813  Net80211_aodv.host[66].wlan[0].mac.ctn[0]  state:vector  ETV
attr interpolationmode  none
attr source  stateChanged
attr title  "contention state, vector"
vector 825  Net80211_aodv.host[67].wlan[0].mac.ctn[0]  state:vector  ETV
attr interpolationmode  none
attr source  stateChanged
attr title  "contention state, vector"
vector 837  Net80211_aodv.host[68].wlan[0].mac.ctn[0]  state:vector  ETV
attr interpolationmode  none
attr source  stateChanged
attr title  "contention state, vector"
vector 849  Net80211_aodv.host[69].wlan[0].mac.ctn[0]  state:vector  ETV
attr interpolationmode  none
attr source  stateChanged
attr title  "contention state, vector"
vector 861  Net80211_aodv.host[70].wlan[0].mac.ctn[0]  state:vector  ETV
attr interpolationmode  none
attr source  stateChanged
attr title  "contention state, vector"
vector 873  Net80211_aodv.host[71].wlan[0].mac.ctn[0]  state:vector  ETV
attr interpolationmode  none
attr source  stateChanged
attr title  "contention state, vector"
vector 885  Net80211_aodv.host[72].wlan[0].mac.ctn[0]  state:vector  ETV
attr interpolationmode  none
attr source  stateChanged
attr title  "contention state, vector"
vector 897  Net80211_aodv.host[73].wlan[0].mac.ctn[0]  state:vector  ETV
attr interpolationmode  none
attr source  stateChanged
attr title  "contention state, vector"
vector 909  Net80211_aodv.host[74].wlan[0].mac.ctn[0]  state:vector  ETV
attr interpolationmode  none
attr source  stateChanged
attr title  "contention state, vector"
vector 921  Net80211_aodv.host[75].wlan[0].mac.ctn[0]  state:vector  ETV
attr interpolationmode  none
attr source  stateChanged
attr title  "contention state, vector"
vector 933  Net80211_aodv.host[76].wlan[0].mac.ctn[0]  state:vector  ETV
attr interpolationmode  none
attr source  stateChanged
attr title  "contention state, vector"
vector 945  Net80211_aodv.host[77].wlan[0].mac.ctn[0]  state:vector  ETV
attr interpolationmode  none
attr source  stateChanged
attr title  "contention state, vector"
vector 957  Net80211_aodv.host[78].wlan[0].mac.ctn[0]  state:vector  ETV
attr interpolationmode  none
attr source  stateChanged
attr title  "contention state, vector"
vector 969  Net80211_aodv.host[79].wlan[0].mac.ctn[0]  state:vector  ETV
attr interpolationmode  none
attr source  stateChanged
attr title  "contention state, vector"
vector 981  Net80211_aodv.host[80].wlan[0].mac.ctn[0]  state:vector  ETV
attr interpolationmode  none
attr source  stateChanged
attr title  "contention state, vector"
vector 993  Net80211_aodv.host[81].wlan[0].mac.ctn[0]  state:vector  ETV
attr interpolationmode  none
attr source  stateChanged
attr title  "contention state, vector"
vector 1005  Net80211_aodv.host[82].wlan[0].mac.ctn[0]  state:vector  ETV
attr interpolationmode  none
attr source  stateChanged
attr title  "contention state, vector"
vector 1017  Net80211_aodv.host[83].wlan[0].mac.ctn[0]  state:vector  ETV
attr interpolationmode  none
attr source  stateChanged
attr title  "contention state, vector"
vector 1029  Net80211_aodv.host[84].wlan[0].mac.ctn[0]  state:vector  ETV
attr interpolationmode  none
attr source  stateChanged
attr title  "contention state, vector"
vector 1041  Net80211_aodv.host[85].wlan[0].mac.ctn[0]  state:vector  ETV
attr interpolationmode  none
attr source  stateChanged
attr title  "contention state, vector"
vector 1053  Net80211_aodv.host[86].wlan[0].mac.ctn[0]  state:vector  ETV
attr interpolationmode  none
attr source  stateChanged
attr title  "contention state, vector"
vector 1065  Net80211_aodv.host[87].wlan[0].mac.ctn[0]  state:vector  ETV
attr interpolationmode  none
attr source  stateChanged
attr title  "contention state, vector"
vector 1077  Net80211_aodv.host[88].wlan[0].mac.ctn[0]  state:vector  ETV
attr interpolationmode  none
attr source  stateChanged
attr title  "contention state, vector"
vector 1089  Net80211_aodv.host[89].wlan[0].mac.ctn[0]  state:vector  ETV
attr interpolationmode  none
attr source  stateChanged
attr title  "contention state, vector"
vector 1101  Net80211_aodv.host[90].wlan[0].mac.ctn[0]  state:vector  ETV
attr interpolationmode  none
attr source  stateChanged
attr title  "contention state, vector"
vector 1113  Net80211_aodv.host[91].wlan[0].mac.ctn[0]  state:vector  ETV
attr interpolationmode  none
attr source  stateChanged
attr title  "contention state, vector"
vector 1125  Net80211_aodv.host[92].wlan[0].mac.ctn[0]  state:vector  ETV
attr interpolationmode  none
attr source  stateChanged
attr title  "contention state, vector"
vector 1137  Net80211_aodv.host[93].wlan[0].mac.ctn[0]  state:vector  ETV
attr interpolationmode  none
attr source  stateChanged
attr title  "contention state, vector"
vector 1149  Net80211_aodv.host[94].wlan[0].mac.ctn[0]  state:vector  ETV
attr interpolationmode  none
attr source  stateChanged
attr title  "contention state, vector"
vector 1161  Net80211_aodv.host[95].wlan[0].mac.ctn[0]  state:vector  ETV
attr interpolationmode  none
attr source  stateChanged
attr title  "contention state, vector"
vector 1173  Net80211_aodv.host[96].wlan[0].mac.ctn[0]  state:vector  ETV
attr interpolationmode  none
attr source  stateChanged
attr title  "contention state, vector"
vector 1185  Net80211_aodv.host[97].wlan[0].mac.ctn[0]  state:vector  ETV
attr interpolationmode  none
attr source  stateChanged
attr title  "contention state, vector"
vector 1197  Net80211_aodv.host[98].wlan[0].mac.ctn[0]  state:vector  ETV
attr interpolationmode  none
attr source  stateChanged
attr title  "contention state, vector"
vector 1209  Net80211_aodv.host[99].wlan[0].mac.ctn[0]  state:vector  ETV
attr interpolationmode  none
attr source  stateChanged
attr title  "contention state, vector"
vector 1229  Net80211_aodv.fixhost.wlan[0].mac.ctn[0]  state:vector  ETV
attr interpolationmode  none
attr source  stateChanged
attr title  "contention state, vector"
vector 17  Net80211_aodv.host[0].wlan[0].radio  radioMode:vector  ETV
attr interpolationmode  sample-hold
attr source  radioModeChanged
attr title  "Radio mode, vector"
vector 20  Net80211_aodv.host[0].wlan[0].radio  radioChannel:vector  ETV
attr interpolationmode  sample-hold
attr source  radioChannelChanged
attr title  "Radio channel, vector"
vector 29  Net80211_aodv.host[1].wlan[0].radio  radioMode:vector  ETV
attr interpolationmode  sample-hold
attr source  radioModeChanged
attr title  "Radio mode, vector"
vector 32  Net80211_aodv.host[1].wlan[0].radio  radioChannel:vector  ETV
attr interpolationmode  sample-hold
attr source  radioChannelChanged
attr title  "Radio channel, vector"
vector 41  Net80211_aodv.host[2].wlan[0].radio  radioMode:vector  ETV
attr interpolationmode  sample-hold
attr source  radioModeChanged
attr title  "Radio mode, vector"
vector 44  Net80211_aodv.host[2].wlan[0].radio  radioChannel:vector  ETV
attr interpolationmode  sample-hold
attr source  radioChannelChanged
attr title  "Radio channel, vector"
vector 53  Net80211_aodv.host[3].wlan[0].radio  radioMode:vector  ETV
attr interpolationmode  sample-hold
attr source  radioModeChanged
attr title  "Radio mode, vector"
vector 56  Net80211_aodv.host[3].wlan[0].radio  radioChannel:vector  ETV
attr interpolationmode  sample-hold
attr source  radioChannelChanged
attr title  "Radio channel, vector"
vector 65  Net80211_aodv.host[4].wlan[0].radio  radioMode:vector  ETV
attr interpolationmode  sample-hold
attr source  radioModeChanged
attr title  "Radio mode, vector"
vector 68  Net80211_aodv.host[4].wlan[0].radio  radioChannel:vector  ETV
attr interpolationmode  sample-hold
attr source  radioChannelChanged
attr title  "Radio channel, vector"
vector 77  Net80211_aodv.host[5].wlan[0].radio  radioMode:vector  ETV
attr interpolationmode  sample-hold
attr source  radioModeChanged
attr title  "Radio mode, vector"
vector 80  Net80211_aodv.host[5].wlan[0].radio  radioChannel:vector  ETV
attr interpolationmode  sample-hold
attr source  radioChannelChanged
attr title  "Radio channel, vector"
vector 89  Net80211_aodv.host[6].wlan[0].radio  radioMode:vector  ETV
attr interpolationmode  sample-hold
attr source  radioModeChanged
attr title  "Radio mode, vector"
vector 92  Net80211_aodv.host[6].wlan[0].radio  radioChannel:vector  ETV
attr interpolationmode  sample-hold
attr source  radioChannelChanged
attr title  "Radio channel, vector"
vector 101  Net80211_aodv.host[7].wlan[0].radio  radioMode:vector  ETV
attr interpolationmode  sample-hold
attr source  radioModeChanged
attr title  "Radio mode, vector"
vector 104  Net80211_aodv.host[7].wlan[0].radio  radioChannel:vector  ETV
attr interpolationmode  sample-hold
attr source  radioChannelChanged
attr title  "Radio channel, vector"
vector 113  Net80211_aodv.host[8].wlan[0].radio  radioMode:vector  ETV
attr interpolationmode  sample-hold
attr source  radioModeChanged
attr title  "Radio mode, vector"
vector 116  Net80211_aodv.host[8].wlan[0].radio  radioChannel:vector  ETV
attr interpolationmode  sample-hold
attr source  radioChannelChanged
attr title  "Radio channel, vector"
vector 125  Net80211_aodv.host[9].wlan[0].radio  radioMode:vector  ETV
attr interpolationmode  sample-hold
attr source  radioModeChanged
attr title  "Radio mode, vector"
vector 128  Net80211_aodv.host[9].wlan[0].radio  radioChannel:vector  ETV
attr interpolationmode  sample-hold
attr source  radioChannelChanged
attr title  "Radio channel, vector"
vector 137  Net80211_aodv.host[10].wlan[0].radio  radioMode:vector  ETV
attr interpolationmode  sample-hold
attr source  radioModeChanged
attr title  "Radio mode, vector"
vector 140  Net80211_aodv.host[10].wlan[0].radio  radioChannel:vector  ETV
attr interpolationmode  sample-hold
attr source  radioChannelChanged
attr title  "Radio channel, vector"
vector 149  Net80211_aodv.host[11].wlan[0].radio  radioMode:vector  ETV
attr interpolationmode  sample-hold
attr source  radioModeChanged
attr title  "Radio mode, vector"
vector 152  Net80211_aodv.host[11].wlan[0].radio  radioChannel:vector  ETV
attr interpolationmode  sample-hold
attr source  radioChannelChanged
attr title  "Radio channel, vector"
vector 161  Net80211_aodv.host[12].wlan[0].radio  radioMode:vector  ETV
attr interpolationmode  sample-hold
attr source  radioModeChanged
attr title  "Radio mode, vector"
vector 164  Net80211_aodv.host[12].wlan[0].radio  radioChannel:vector  ETV
attr interpolationmode  sample-hold
attr source  radioChannelChanged
attr title  "Radio channel, vector"
vector 173  Net80211_aodv.host[13].wlan[0].radio  radioMode:vector  ETV
attr interpolationmode  sample-hold
attr source  radioModeChanged
attr title  "Radio mode, vector"
vector 176  Net80211_aodv.host[13].wlan[0].radio  radioChannel:vector  ETV
attr interpolationmode  sample-hold
attr source  radioChannelChanged
attr title  "Radio channel, vector"
vector 185  Net80211_aodv.host[14].wlan[0].radio  radioMode:vector  ETV
attr interpolationmode  sample-hold
attr source  radioModeChanged
attr title  "Radio mode, vector"
vector 188  Net80211_aodv.host[14].wlan[0].radio  radioChannel:vector  ETV
attr interpolationmode  sample-hold
attr source  radioChannelChanged
attr title  "Radio channel, vector"
vector 197  Net80211_aodv.host[15].wlan[0].radio  radioMode:vector  ETV
attr interpolationmode  sample-hold
attr source  radioModeChanged
attr title  "Radio mode, vector"
vector 200  Net80211_aodv.host[15].wlan[0].radio  radioChannel:vector  ETV
attr interpolationmode  sample-hold
attr source  radioChannelChanged
attr title  "Radio channel, vector"
vector 209  Net80211_aodv.host[16].wlan[0].radio  radioMode:vector  ETV
attr interpolationmode  sample-hold
attr source  radioModeChanged
attr title  "Radio mode, vector"
vector 212  Net80211_aodv.host[16].wlan[0].radio  radioChannel:vector  ETV
attr interpolationmode  sample-hold
attr source  radioChannelChanged
attr title  "Radio channel, vector"
vector 221  Net80211_aodv.host[17].wlan[0].radio  radioMode:vector  ETV
attr interpolationmode  sample-hold
attr source  radioModeChanged
attr title  "Radio mode, vector"
vector 224  Net80211_aodv.host[17].wlan[0].radio  radioChannel:vector  ETV
attr interpolationmode  sample-hold
attr source  radioChannelChanged
attr title  "Radio channel, vector"
vector 233  Net80211_aodv.host[18].wlan[0].radio  radioMode:vector  ETV
attr interpolationmode  sample-hold
attr source  radioModeChanged
attr title  "Radio mode, vector"
vector 236  Net80211_aodv.host[18].wlan[0].radio  radioChannel:vector  ETV
attr interpolationmode  sample-hold
attr source  radioChannelChanged
attr title  "Radio channel, vector"
vector 245  Net80211_aodv.host[19].wlan[0].radio  radioMode:vector  ETV
attr interpolationmode  sample-hold
attr source  radioModeChanged
attr title  "Radio mode, vector"
vector 248  Net80211_aodv.host[19].wlan[0].radio  radioChannel:vector  ETV
attr interpolationmode  sample-hold
attr source  radioChannelChanged
attr title  "Radio channel, vector"
vector 257  Net80211_aodv.host[20].wlan[0].radio  radioMode:vector  ETV
attr interpolationmode  sample-hold
attr source  radioModeChanged
attr title  "Radio mode, vector"
vector 260  Net80211_aodv.host[20].wlan[0].radio  radioChannel:vector  ETV
attr interpolationmode  sample-hold
attr source  radioChannelChanged
attr title  "Radio channel, vector"
vector 269  Net80211_aodv.host[21].wlan[0].radio  radioMode:vector  ETV
attr interpolationmode  sample-hold
attr source  radioModeChanged
attr title  "Radio mode, vector"
vector 272  Net80211_aodv.host[21].wlan[0].radio  radioChannel:vector  ETV
attr interpolationmode  sample-hold
attr source  radioChannelChanged
attr title  "Radio channel, vector"
vector 281  Net80211_aodv.host[22].wlan[0].radio  radioMode:vector  ETV
attr interpolationmode  sample-hold
attr source  radioModeChanged
attr title  "Radio mode, vector"
vector 284  Net80211_aodv.host[22].wlan[0].radio  radioChannel:vector  ETV
attr interpolationmode  sample-hold
attr source  radioChannelChanged
attr title  "Radio channel, vector"
vector 293  Net80211_aodv.host[23].wlan[0].radio  radioMode:vector  ETV
attr interpolationmode  sample-hold
attr source  radioModeChanged
attr title  "Radio mode, vector"
vector 296  Net80211_aodv.host[23].wlan[0].radio  radioChannel:vector  ETV
attr interpolationmode  sample-hold
attr source  radioChannelChanged
attr title  "Radio channel, vector"
vector 305  Net80211_aodv.host[24].wlan[0].radio  radioMode:vector  ETV
attr interpolationmode  sample-hold
attr source  radioModeChanged
attr title  "Radio mode, vector"
vector 308  Net80211_aodv.host[24].wlan[0].radio  radioChannel:vector  ETV
attr interpolationmode  sample-hold
attr source  radioChannelChanged
attr title  "Radio channel, vector"
vector 317  Net80211_aodv.host[25].wlan[0].radio  radioMode:vector  ETV
attr interpolationmode  sample-hold
attr source  radioModeChanged
attr title  "Radio mode, vector"
vector 320  Net80211_aodv.host[25].wlan[0].radio  radioChannel:vector  ETV
attr interpolationmode  sample-hold
attr source  radioChannelChanged
attr title  "Radio channel, vector"
vector 329  Net80211_aodv.host[26].wlan[0].radio  radioMode:vector  ETV
attr interpolationmode  sample-hold
attr source  radioModeChanged
attr title  "Radio mode, vector"
vector 332  Net80211_aodv.host[26].wlan[0].radio  radioChannel:vector  ETV
attr interpolationmode  sample-hold
attr source  radioChannelChanged
attr title  "Radio channel, vector"
vector 341  Net80211_aodv.host[27].wlan[0].radio  radioMode:vector  ETV
attr interpolationmode  sample-hold
attr source  radioModeChanged
attr title  "Radio mode, vector"
vector 344  Net80211_aodv.host[27].wlan[0].radio  radioChannel:vector  ETV
attr interpolationmode  sample-hold
attr source  radioChannelChanged
attr title  "Radio channel, vector"
vector 353  Net80211_aodv.host[28].wlan[0].radio  radioMode:vector  ETV
attr interpolationmode  sample-hold
attr source  radioModeChanged
attr title  "Radio mode, vector"
vector 356  Net80211_aodv.host[28].wlan[0].radio  radioChannel:vector  ETV
attr interpolationmode  sample-hold
attr source  radioChannelChanged
attr title  "Radio channel, vector"
vector 365  Net80211_aodv.host[29].wlan[0].radio  radioMode:vector  ETV
attr interpolationmode  sample-hold
attr source  radioModeChanged
attr title  "Radio mode, vector"
vector 368  Net80211_aodv.host[29].wlan[0].radio  radioChannel:vector  ETV
attr interpolationmode  sample-hold
attr source  radioChannelChanged
attr title  "Radio channel, vector"
vector 377  Net80211_aodv.host[30].wlan[0].radio  radioMode:vector  ETV
attr interpolationmode  sample-hold
attr source  radioModeChanged
attr title  "Radio mode, vector"
vector 380  Net80211_aodv.host[30].wlan[0].radio  radioChannel:vector  ETV
attr interpolationmode  sample-hold
attr source  radioChannelChanged
attr title  "Radio channel, vector"
vector 389  Net80211_aodv.host[31].wlan[0].radio  radioMode:vector  ETV
attr interpolationmode  sample-hold
attr source  radioModeChanged
attr title  "Radio mode, vector"
vector 392  Net80211_aodv.host[31].wlan[0].radio  radioChannel:vector  ETV
attr interpolationmode  sample-hold
attr source  radioChannelChanged
attr title  "Radio channel, vector"
vector 401  Net80211_aodv.host[32].wlan[0].radio  radioMode:vector  ETV
attr interpolationmode  sample-hold
attr source  radioModeChanged
attr title  "Radio mode, vector"
vector 404  Net80211_aodv.host[32].wlan[0].radio  radioChannel:vector  ETV
attr interpolationmode  sample-hold
attr source  radioChannelChanged
attr title  "Radio channel, vector"
vector 413  Net80211_aodv.host[33].wlan[0].radio  radioMode:vector  ETV
attr interpolationmode  sample-hold
attr source  radioModeChanged
attr title  "Radio mode, vector"
vector 416  Net80211_aodv.host[33].wlan[0].radio  radioChannel:vector  ETV
attr interpolationmode  sample-hold
attr source  radioChannelChanged
attr title  "Radio channel, vector"
vector 425  Net80211_aodv.host[34].wlan[0].radio  radioMode:vector  ETV
attr interpolationmode  sample-hold
attr source  radioModeChanged
attr title  "Radio mode, vector"
vector 428  Net80211_aodv.host[34].wlan[0].radio  radioChannel:vector  ETV
attr interpolationmode  sample-hold
attr source  radioChannelChanged
attr title  "Radio channel, vector"
vector 437  Net80211_aodv.host[35].wlan[0].radio  radioMode:vector  ETV
attr interpolationmode  sample-hold
attr source  radioModeChanged
attr title  "Radio mode, vector"
vector 440  Net80211_aodv.host[35].wlan[0].radio  radioChannel:vector  ETV
attr interpolationmode  sample-hold
attr source  radioChannelChanged
attr title  "Radio channel, vector"
vector 449  Net80211_aodv.host[36].wlan[0].radio  radioMode:vector  ETV
attr interpolationmode  sample-hold
attr source  radioModeChanged
attr title  "Radio mode, vector"
vector 452  Net80211_aodv.host[36].wlan[0].radio  radioChannel:vector  ETV
attr interpolationmode  sample-hold
attr source  radioChannelChanged
attr title  "Radio channel, vector"
vector 461  Net80211_aodv.host[37].wlan[0].radio  radioMode:vector  ETV
attr interpolationmode  sample-hold
attr source  radioModeChanged
attr title  "Radio mode, vector"
vector 464  Net80211_aodv.host[37].wlan[0].radio  radioChannel:vector  ETV
attr interpolationmode  sample-hold
attr source  radioChannelChanged
attr title  "Radio channel, vector"
vector 473  Net80211_aodv.host[38].wlan[0].radio  radioMode:vector  ETV
attr interpolationmode  sample-hold
attr source  radioModeChanged
attr title  "Radio mode, vector"
vector 476  Net80211_aodv.host[38].wlan[0].radio  radioChannel:vector  ETV
attr interpolationmode  sample-hold
attr source  radioChannelChanged
attr title  "Radio channel, vector"
vector 485  Net80211_aodv.host[39].wlan[0].radio  radioMode:vector  ETV
attr interpolationmode  sample-hold
attr source  radioModeChanged
attr title  "Radio mode, vector"
vector 488  Net80211_aodv.host[39].wlan[0].radio  radioChannel:vector  ETV
attr interpolationmode  sample-hold
attr source  radioChannelChanged
attr title  "Radio channel, vector"
vector 497  Net80211_aodv.host[40].wlan[0].radio  radioMode:vector  ETV
attr interpolationmode  sample-hold
attr source  radioModeChanged
attr title  "Radio mode, vector"
vector 500  Net80211_aodv.host[40].wlan[0].radio  radioChannel:vector  ETV
attr interpolationmode  sample-hold
attr source  radioChannelChanged
attr title  "Radio channel, vector"
vector 509  Net80211_aodv.host[41].wlan[0].radio  radioMode:vector  ETV
attr interpolationmode  sample-hold
attr source  radioModeChanged
attr title  "Radio mode, vector"
vector 512  Net80211_aodv.host[41].wlan[0].radio  radioChannel:vector  ETV
attr interpolationmode  sample-hold
attr source  radioChannelChanged
attr title  "Radio channel, vector"
vector 521  Net80211_aodv.host[42].wlan[0].radio  radioMode:vector  ETV
attr interpolationmode  sample-hold
attr source  radioModeChanged
attr title  "Radio mode, vector"
vector 524  Net80211_aodv.host[42].wlan[0].radio  radioChannel:vector  ETV
attr interpolationmode  sample-hold
attr source  radioChannelChanged
attr title  "Radio channel, vector"
vector 533  Net80211_aodv.host[43].wlan[0].radio  radioMode:vector  ETV
attr interpolationmode  sample-hold
attr source  radioModeChanged
attr title  "Radio mode, vector"
vector 536  Net80211_aodv.host[43].wlan[0].radio  radioChannel:vector  ETV
attr interpolationmode  sample-hold
attr source  radioChannelChanged
attr title  "Radio channel, vector"
vector 545  Net80211_aodv.host[44].wlan[0].radio  radioMode:vector  ETV
attr interpolationmode  sample-hold
attr source  radioModeChanged
attr title  "Radio mode, vector"
vector 548  Net80211_aodv.host[44].wlan[0].radio  radioChannel:vector  ETV
attr interpolationmode  sample-hold
attr source  radioChannelChanged
attr title  "Radio channel, vector"
vector 557  Net80211_aodv.host[45].wlan[0].radio  radioMode:vector  ETV
attr interpolationmode  sample-hold
attr source  radioModeChanged
attr title  "Radio mode, vector"
vector 560  Net80211_aodv.host[45].wlan[0].radio  radioChannel:vector  ETV
attr interpolationmode  sample-hold
attr source  radioChannelChanged
attr title  "Radio channel, vector"
vector 569  Net80211_aodv.host[46].wlan[0].radio  radioMode:vector  ETV
attr interpolationmode  sample-hold
attr source  radioModeChanged
attr title  "Radio mode, vector"
vector 572  Net80211_aodv.host[46].wlan[0].radio  radioChannel:vector  ETV
attr interpolationmode  sample-hold
attr source  radioChannelChanged
attr title  "Radio channel, vector"
vector 581  Net80211_aodv.host[47].wlan[0].radio  radioMode:vector  ETV
attr interpolationmode  sample-hold
attr source  radioModeChanged
attr title  "Radio mode, vector"
vector 584  Net80211_aodv.host[47].wlan[0].radio  radioChannel:vector  ETV
attr interpolationmode  sample-hold
attr source  radioChannelChanged
attr title  "Radio channel, vector"
vector 593  Net80211_aodv.host[48].wlan[0].radio  radioMode:vector  ETV
attr interpolationmode  sample-hold
attr source  radioModeChanged
attr title  "Radio mode, vector"
vector 596  Net80211_aodv.host[48].wlan[0].radio  radioChannel:vector  ETV
attr interpolationmode  sample-hold
attr source  radioChannelChanged
attr title  "Radio channel, vector"
vector 605  Net80211_aodv.host[49].wlan[0].radio  radioMode:vector  ETV
attr interpolationmode  sample-hold
attr source  radioModeChanged
attr title  "Radio mode, vector"
vector 608  Net80211_aodv.host[49].wlan[0].radio  radioChannel:vector  ETV
attr interpolationmode  sample-hold
attr source  radioChannelChanged
attr title  "Radio channel, vector"
vector 617  Net80211_aodv.host[50].wlan[0].radio  radioMode:vector  ETV
attr interpolationmode  sample-hold
attr source  radioModeChanged
attr title  "Radio mode, vector"
vector 620  Net80211_aodv.host[50].wlan[0].radio  radioChannel:vector  ETV
attr interpolationmode  sample-hold
attr source  radioChannelChanged
attr title  "Radio channel, vector"
vector 629  Net80211_aodv.host[51].wlan[0].radio  radioMode:vector  ETV
attr interpolationmode  sample-hold
attr source  radioModeChanged
attr title  "Radio mode, vector"
vector 632  Net80211_aodv.host[51].wlan[0].radio  radioChannel:vector  ETV
attr interpolationmode  sample-hold
attr source  radioChannelChanged
attr title  "Radio channel, vector"
vector 641  Net80211_aodv.host[52].wlan[0].radio  radioMode:vector  ETV
attr interpolationmode  sample-hold
attr source  radioModeChanged
attr title  "Radio mode, vector"
vector 644  Net80211_aodv.host[52].wlan[0].radio  radioChannel:vector  ETV
attr interpolationmode  sample-hold
attr source  radioChannelChanged
attr title  "Radio channel, vector"
vector 653  Net80211_aodv.host[53].wlan[0].radio  radioMode:vector  ETV
attr interpolationmode  sample-hold
attr source  radioModeChanged
attr title  "Radio mode, vector"
vector 656  Net80211_aodv.host[53].wlan[0].radio  radioChannel:vector  ETV
attr interpolationmode  sample-hold
attr source  radioChannelChanged
attr title  "Radio channel, vector"
vector 665  Net80211_aodv.host[54].wlan[0].radio  radioMode:vector  ETV
attr interpolationmode  sample-hold
attr source  radioModeChanged
attr title  "Radio mode, vector"
vector 668  Net80211_aodv.host[54].wlan[0].radio  radioChannel:vector  ETV
attr interpolationmode  sample-hold
attr source  radioChannelChanged
attr title  "Radio channel, vector"
vector 677  Net80211_aodv.host[55].wlan[0].radio  radioMode:vector  ETV
attr interpolationmode  sample-hold
attr source  radioModeChanged
attr title  "Radio mode, vector"
vector 680  Net80211_aodv.host[55].wlan[0].radio  radioChannel:vector  ETV
attr interpolationmode  sample-hold
attr source  radioChannelChanged
attr title  "Radio channel, vector"
vector 689  Net80211_aodv.host[56].wlan[0].radio  radioMode:vector  ETV
attr interpolationmode  sample-hold
attr source  radioModeChanged
attr title  "Radio mode, vector"
vector 692  Net80211_aodv.host[56].wlan[0].radio  radioChannel:vector  ETV
attr interpolationmode  sample-hold
attr source  radioChannelChanged
attr title  "Radio channel, vector"
vector 701  Net80211_aodv.host[57].wlan[0].radio  radioMode:vector  ETV
attr interpolationmode  sample-hold
attr source  radioModeChanged
attr title  "Radio mode, vector"
vector 704  Net80211_aodv.host[57].wlan[0].radio  radioChannel:vector  ETV
attr interpolationmode  sample-hold
attr source  radioChannelChanged
attr title  "Radio channel, vector"
vector 713  Net80211_aodv.host[58].wlan[0].radio  radioMode:vector  ETV
attr interpolationmode  sample-hold
attr source  radioModeChanged
attr title  "Radio mode, vector"
vector 716  Net80211_aodv.host[58].wlan[0].radio  radioChannel:vector  ETV
attr interpolationmode  sample-hold
attr source  radioChannelChanged
attr title  "Radio channel, vector"
vector 725  Net80211_aodv.host[59].wlan[0].radio  radioMode:vector  ETV
attr interpolationmode  sample-hold
attr source  radioModeChanged
attr title  "Radio mode, vector"
vector 728  Net80211_aodv.host[59].wlan[0].radio  radioChannel:vector  ETV
attr interpolationmode  sample-hold
attr source  radioChannelChanged
attr title  "Radio channel, vector"
vector 737  Net80211_aodv.host[60].wlan[0].radio  radioMode:vector  ETV
attr interpolationmode  sample-hold
attr source  radioModeChanged
attr title  "Radio mode, vector"
vector 740  Net80211_aodv.host[60].wlan[0].radio  radioChannel:vector  ETV
attr interpolationmode  sample-hold
attr source  radioChannelChanged
attr title  "Radio channel, vector"
vector 749  Net80211_aodv.host[61].wlan[0].radio  radioMode:vector  ETV
attr interpolationmode  sample-hold
attr source  radioModeChanged
attr title  "Radio mode, vector"
vector 752  Net80211_aodv.host[61].wlan[0].radio  radioChannel:vector  ETV
attr interpolationmode  sample-hold
attr source  radioChannelChanged
attr title  "Radio channel, vector"
vector 761  Net80211_aodv.host[62].wlan[0].radio  radioMode:vector  ETV
attr interpolationmode  sample-hold
attr source  radioModeChanged
attr title  "Radio mode, vector"
vector 764  Net80211_aodv.host[62].wlan[0].radio  radioChannel:vector  ETV
attr interpolationmode  sample-hold
attr source  radioChannelChanged
attr title  "Radio channel, vector"
vector 773  Net80211_aodv.host[63].wlan[0].radio  radioMode:vector  ETV
attr interpolationmode  sample-hold
attr source  radioModeChanged
attr title  "Radio mode, vector"
vector 776  Net80211_aodv.host[63].wlan[0].radio  radioChannel:vector  ETV
attr interpolationmode  sample-hold
attr source  radioChannelChanged
attr title  "Radio channel, vector"
vector 785  Net80211_aodv.host[64].wlan[0].radio  radioMode:vector  ETV
attr interpolationmode  sample-hold
attr source  radioModeChanged
attr title  "Radio mode, vector"
vector 788  Net80211_aodv.host[64].wlan[0].radio  radioChannel:vector  ETV
attr interpolationmode  sample-hold
attr source  radioChannelChanged
attr title  "Radio channel, vector"
vector 797  Net80211_aodv.host[65].wlan[0].radio  radioMode:vector  ETV
attr interpolationmode  sample-hold
attr source  radioModeChanged
attr title  "Radio mode, vector"
vector 800  Net80211_aodv.host[65].wlan[0].radio  radioChannel:vector  ETV
attr interpolationmode  sample-hold
attr source  radioChannelChanged
attr title  "Radio channel, vector"
vector 809  Net80211_aodv.host[66].wlan[0].radio  radioMode:vector  ETV
attr interpolationmode  sample-hold
attr source  radioModeChanged
attr title  "Radio mode, vector"
vector 812  Net80211_aodv.host[66].wlan[0].radio  radioChannel:vector  ETV
attr interpolationmode  sample-hold
attr source  radioChannelChanged
attr title  "Radio channel, vector"
vector 821  Net80211_aodv.host[67].wlan[0].radio  radioMode:vector  ETV
attr interpolationmode  sample-hold
attr source  radioModeChanged
attr title  "Radio mode, vector"
vector 824  Net80211_aodv.host[67].wlan[0].radio  radioChannel:vector  ETV
attr interpolationmode  sample-hold
attr source  radioChannelChanged
attr title  "Radio channel, vector"
vector 833  Net80211_aodv.host[68].wlan[0].radio  radioMode:vector  ETV
attr interpolationmode  sample-hold
attr source  radioModeChanged
attr title  "Radio mode, vector"
vector 836  Net80211_aodv.host[68].wlan[0].radio  radioChannel:vector  ETV
attr interpolationmode  sample-hold
attr source  radioChannelChanged
attr title  "Radio channel, vector"
vector 845  Net80211_aodv.host[69].wlan[0].radio  radioMode:vector  ETV
attr interpolationmode  sample-hold
attr source  radioModeChanged
attr title  "Radio mode, vector"
vector 848  Net80211_aodv.host[69].wlan[0].radio  radioChannel:vector  ETV
attr interpolationmode  sample-hold
attr source  radioChannelChanged
attr title  "Radio channel, vector"
vector 857  Net80211_aodv.host[70].wlan[0].radio  radioMode:vector  ETV
attr interpolationmode  sample-hold
attr source  radioModeChanged
attr title  "Radio mode, vector"
vector 860  Net80211_aodv.host[70].wlan[0].radio  radioChannel:vector  ETV
attr interpolationmode  sample-hold
attr source  radioChannelChanged
attr title  "Radio channel, vector"
vector 869  Net80211_aodv.host[71].wlan[0].radio  radioMode:vector  ETV
attr interpolationmode  sample-hold
attr source  radioModeChanged
attr title  "Radio mode, vector"
vector 872  Net80211_aodv.host[71].wlan[0].radio  radioChannel:vector  ETV
attr interpolationmode  sample-hold
attr source  radioChannelChanged
attr title  "Radio channel, vector"
vector 881  Net80211_aodv.host[72].wlan[0].radio  radioMode:vector  ETV
attr interpolationmode  sample-hold
attr source  radioModeChanged
attr title  "Radio mode, vector"
vector 884  Net80211_aodv.host[72].wlan[0].radio  radioChannel:vector  ETV
attr interpolationmode  sample-hold
attr source  radioChannelChanged
attr title  "Radio channel, vector"
vector 893  Net80211_aodv.host[73].wlan[0].radio  radioMode:vector  ETV
attr interpolationmode  sample-hold
attr source  radioModeChanged
attr title  "Radio mode, vector"
vector 896  Net80211_aodv.host[73].wlan[0].radio  radioChannel:vector  ETV
attr interpolationmode  sample-hold
attr source  radioChannelChanged
attr title  "Radio channel, vector"
vector 905  Net80211_aodv.host[74].wlan[0].radio  radioMode:vector  ETV
attr interpolationmode  sample-hold
attr source  radioModeChanged
attr title  "Radio mode, vector"
vector 908  Net80211_aodv.host[74].wlan[0].radio  radioChannel:vector  ETV
attr interpolationmode  sample-hold
attr source  radioChannelChanged
attr title  "Radio channel, vector"
vector 917  Net80211_aodv.host[75].wlan[0].radio  radioMode:vector  ETV
attr interpolationmode  sample-hold
attr source  radioModeChanged
attr title  "Radio mode, vector"
vector 920  Net80211_aodv.host[75].wlan[0].radio  radioChannel:vector  ETV
attr interpolationmode  sample-hold
attr source  radioChannelChanged
attr title  "Radio channel, vector"
vector 929  Net80211_aodv.host[76].wlan[0].radio  radioMode:vector  ETV
attr interpolationmode  sample-hold
attr source  radioModeChanged
attr title  "Radio mode, vector"
vector 932  Net80211_aodv.host[76].wlan[0].radio  radioChannel:vector  ETV
attr interpolationmode  sample-hold
attr source  radioChannelChanged
attr title  "Radio channel, vector"
vector 941  Net80211_aodv.host[77].wlan[0].radio  radioMode:vector  ETV
attr interpolationmode  sample-hold
attr source  radioModeChanged
attr title  "Radio mode, vector"
vector 944  Net80211_aodv.host[77].wlan[0].radio  radioChannel:vector  ETV
attr interpolationmode  sample-hold
attr source  radioChannelChanged
attr title  "Radio channel, vector"
vector 953  Net80211_aodv.host[78].wlan[0].radio  radioMode:vector  ETV
attr interpolationmode  sample-hold
attr source  radioModeChanged
attr title  "Radio mode, vector"
vector 956  Net80211_aodv.host[78].wlan[0].radio  radioChannel:vector  ETV
attr interpolationmode  sample-hold
attr source  radioChannelChanged
attr title  "Radio channel, vector"
vector 965  Net80211_aodv.host[79].wlan[0].radio  radioMode:vector  ETV
attr interpolationmode  sample-hold
attr source  radioModeChanged
attr title  "Radio mode, vector"
vector 968  Net80211_aodv.host[79].wlan[0].radio  radioChannel:vector  ETV
attr interpolationmode  sample-hold
attr source  radioChannelChanged
attr title  "Radio channel, vector"
vector 977  Net80211_aodv.host[80].wlan[0].radio  radioMode:vector  ETV
attr interpolationmode  sample-hold
attr source  radioModeChanged
attr title  "Radio mode, vector"
vector 980  Net80211_aodv.host[80].wlan[0].radio  radioChannel:vector  ETV
attr interpolationmode  sample-hold
attr source  radioChannelChanged
attr title  "Radio channel, vector"
vector 989  Net80211_aodv.host[81].wlan[0].radio  radioMode:vector  ETV
attr interpolationmode  sample-hold
attr source  radioModeChanged
attr title  "Radio mode, vector"
vector 992  Net80211_aodv.host[81].wlan[0].radio  radioChannel:vector  ETV
attr interpolationmode  sample-hold
attr source  radioChannelChanged
attr title  "Radio channel, vector"
vector 1001  Net80211_aodv.host[82].wlan[0].radio  radioMode:vector  ETV
attr interpolationmode  sample-hold
attr source  radioModeChanged
attr title  "Radio mode, vector"
vector 1004  Net80211_aodv.host[82].wlan[0].radio  radioChannel:vector  ETV
attr interpolationmode  sample-hold
attr source  radioChannelChanged
attr title  "Radio channel, vector"
vector 1013  Net80211_aodv.host[83].wlan[0].radio  radioMode:vector  ETV
attr interpolationmode  sample-hold
attr source  radioModeChanged
attr title  "Radio mode, vector"
vector 1016  Net80211_aodv.host[83].wlan[0].radio  radioChannel:vector  ETV
attr interpolationmode  sample-hold
attr source  radioChannelChanged
attr title  "Radio channel, vector"
vector 1025  Net80211_aodv.host[84].wlan[0].radio  radioMode:vector  ETV
attr interpolationmode  sample-hold
attr source  radioModeChanged
attr title  "Radio mode, vector"
vector 1028  Net80211_aodv.host[84].wlan[0].radio  radioChannel:vector  ETV
attr interpolationmode  sample-hold
attr source  radioChannelChanged
attr title  "Radio channel, vector"
vector 1037  Net80211_aodv.host[85].wlan[0].radio  radioMode:vector  ETV
attr interpolationmode  sample-hold
attr source  radioModeChanged
attr title  "Radio mode, vector"
vector 1040  Net80211_aodv.host[85].wlan[0].radio  radioChannel:vector  ETV
attr interpolationmode  sample-hold
attr source  radioChannelChanged
attr title  "Radio channel, vector"
vector 1049  Net80211_aodv.host[86].wlan[0].radio  radioMode:vector  ETV
attr interpolationmode  sample-hold
attr source  radioModeChanged
attr title  "Radio mode, vector"
vector 1052  Net80211_aodv.host[86].wlan[0].radio  radioChannel:vector  ETV
attr interpolationmode  sample-hold
attr source  radioChannelChanged
attr title  "Radio channel, vector"
vector 1061  Net80211_aodv.host[87].wlan[0].radio  radioMode:vector  ETV
attr interpolationmode  sample-hold
attr source  radioModeChanged
attr title  "Radio mode, vector"
vector 1064  Net80211_aodv.host[87].wlan[0].radio  radioChannel:vector  ETV
attr interpolationmode  sample-hold
attr source  radioChannelChanged
attr title  "Radio channel, vector"
vector 1073  Net80211_aodv.host[88].wlan[0].radio  radioMode:vector  ETV
attr interpolationmode  sample-hold
attr source  radioModeChanged
attr title  "Radio mode, vector"
vector 1076  Net80211_aodv.host[88].wlan[0].radio  radioChannel:vector  ETV
attr interpolationmode  sample-hold
attr source  radioChannelChanged
attr title  "Radio channel, vector"
vector 1085  Net80211_aodv.host[89].wlan[0].radio  radioMode:vector  ETV
attr interpolationmode  sample-hold
attr source  radioModeChanged
attr title  "Radio mode, vector"
vector 1088  Net80211_aodv.host[89].wlan[0].radio  radioChannel:vector  ETV
attr interpolationmode  sample-hold
attr source  radioChannelChanged
attr title  "Radio channel, vector"
vector 1097  Net80211_aodv.host[90].wlan[0].radio  radioMode:vector  ETV
attr interpolationmode  sample-hold
attr source  radioModeChanged
attr title  "Radio mode, vector"
vector 1100  Net80211_aodv.host[90].wlan[0].radio  radioChannel:vector  ETV
attr interpolationmode  sample-hold
attr source  radioChannelChanged
attr title  "Radio channel, vector"
vector 1109  Net80211_aodv.host[91].wlan[0].radio  radioMode:vector  ETV
attr interpolationmode  sample-hold
attr source  radioModeChanged
attr title  "Radio mode, vector"
vector 1112  Net80211_aodv.host[91].wlan[0].radio  radioChannel:vector  ETV
attr interpolationmode  sample-hold
attr source  radioChannelChanged
attr title  "Radio channel, vector"
vector 1121  Net80211_aodv.host[92].wlan[0].radio  radioMode:vector  ETV
attr interpolationmode  sample-hold
attr source  radioModeChanged
attr title  "Radio mode, vector"
vector 1124  Net80211_aodv.host[92].wlan[0].radio  radioChannel:vector  ETV
attr interpolationmode  sample-hold
attr source  radioChannelChanged
attr title  "Radio channel, vector"
vector 1133  Net80211_aodv.host[93].wlan[0].radio  radioMode:vector  ETV
attr interpolationmode  sample-hold
attr source  radioModeChanged
attr title  "Radio mode, vector"
vector 1136  Net80211_aodv.host[93].wlan[0].radio  radioChannel:vector  ETV
attr interpolationmode  sample-hold
attr source  radioChannelChanged
attr title  "Radio channel, vector"
vector 1145  Net80211_aodv.host[94].wlan[0].radio  radioMode:vector  ETV
attr interpolationmode  sample-hold
attr source  radioModeChanged
attr title  "Radio mode, vector"
vector 1148  Net80211_aodv.host[94].wlan[0].radio  radioChannel:vector  ETV
attr interpolationmode  sample-hold
attr source  radioChannelChanged
attr title  "Radio channel, vector"
vector 1157  Net80211_aodv.host[95].wlan[0].radio  radioMode:vector  ETV
attr interpolationmode  sample-hold
attr source  radioModeChanged
attr title  "Radio mode, vector"
vector 1160  Net80211_aodv.host[95].wlan[0].radio  radioChannel:vector  ETV
attr interpolationmode  sample-hold
attr source  radioChannelChanged
attr title  "Radio channel, vector"
vector 1169  Net80211_aodv.host[96].wlan[0].radio  radioMode:vector  ETV
attr interpolationmode  sample-hold
attr source  radioModeChanged
attr title  "Radio mode, vector"
vector 1172  Net80211_aodv.host[96].wlan[0].radio  radioChannel:vector  ETV
attr interpolationmode  sample-hold
attr source  radioChannelChanged
attr title  "Radio channel, vector"
vector 1181  Net80211_aodv.host[97].wlan[0].radio  radioMode:vector  ETV
attr interpolationmode  sample-hold
attr source  radioModeChanged
attr title  "Radio mode, vector"
vector 1184  Net80211_aodv.host[97].wlan[0].radio  radioChannel:vector  ETV
attr interpolationmode  sample-hold
attr source  radioChannelChanged
attr title  "Radio channel, vector"
vector 1193  Net80211_aodv.host[98].wlan[0].radio  radioMode:vector  ETV
attr interpolationmode  sample-hold
attr source  radioModeChanged
attr title  "Radio mode, vector"
vector 1196  Net80211_aodv.host[98].wlan[0].radio  radioChannel:vector  ETV
attr interpolationmode  sample-hold
attr source  radioChannelChanged
attr title  "Radio channel, vector"
vector 1205  Net80211_aodv.host[99].wlan[0].radio  radioMode:vector  ETV
attr interpolationmode  sample-hold
attr source  radioModeChanged
attr title  "Radio mode, vector"
vector 1208  Net80211_aodv.host[99].wlan[0].radio  radioChannel:vector  ETV
attr interpolationmode  sample-hold
attr source  radioChannelChanged
attr title  "Radio channel, vector"
vector 1225  Net80211_aodv.fixhost.wlan[0].radio  radioMode:vector  ETV
attr interpolationmode  sample-hold
attr source  radioModeChanged
attr title  "Radio mode, vector"
vector 1228  Net80211_aodv.fixhost.wlan[0].radio  radioChannel:vector  ETV
attr interpolationmode  sample-hold
attr source  radioChannelChanged
attr title  "Radio channel, vector"
vector 18  Net80211_aodv.host[0].wlan[0].radio  receptionState:vector  ETV
attr interpolationmode  sample-hold
attr source  receptionStateChanged
attr title  "Radio reception state, vector"
vector 30  Net80211_aodv.host[1].wlan[0].radio  receptionState:vector  ETV
attr interpolationmode  sample-hold
attr source  receptionStateChanged
attr title  "Radio reception state, vector"
vector 42  Net80211_aodv.host[2].wlan[0].radio  receptionState:vector  ETV
attr interpolationmode  sample-hold
attr source  receptionStateChanged
attr title  "Radio reception state, vector"
vector 54  Net80211_aodv.host[3].wlan[0].radio  receptionState:vector  ETV
attr interpolationmode  sample-hold
attr source  receptionStateChanged
attr title  "Radio reception state, vector"
vector 66  Net80211_aodv.host[4].wlan[0].radio  receptionState:vector  ETV
attr interpolationmode  sample-hold
attr source  receptionStateChanged
attr title  "Radio reception state, vector"
vector 78  Net80211_aodv.host[5].wlan[0].radio  receptionState:vector  ETV
attr interpolationmode  sample-hold
attr source  receptionStateChanged
attr title  "Radio reception state, vector"
vector 90  Net80211_aodv.host[6].wlan[0].radio  receptionState:vector  ETV
attr interpolationmode  sample-hold
attr source  receptionStateChanged
attr title  "Radio reception state, vector"
vector 102  Net80211_aodv.host[7].wlan[0].radio  receptionState:vector  ETV
attr interpolationmode  sample-hold
attr source  receptionStateChanged
attr title  "Radio reception state, vector"
vector 114  Net80211_aodv.host[8].wlan[0].radio  receptionState:vector  ETV
attr interpolationmode  sample-hold
attr source  receptionStateChanged
attr title  "Radio reception state, vector"
vector 126  Net80211_aodv.host[9].wlan[0].radio  receptionState:vector  ETV
attr interpolationmode  sample-hold
attr source  receptionStateChanged
attr title  "Radio reception state, vector"
vector 138  Net80211_aodv.host[10].wlan[0].radio  receptionState:vector  ETV
attr interpolationmode  sample-hold
attr source  receptionStateChanged
attr title  "Radio reception state, vector"
vector 150  Net80211_aodv.host[11].wlan[0].radio  receptionState:vector  ETV
attr interpolationmode  sample-hold
attr source  receptionStateChanged
attr title  "Radio reception state, vector"
vector 162  Net80211_aodv.host[12].wlan[0].radio  receptionState:vector  ETV
attr interpolationmode  sample-hold
attr source  receptionStateChanged
attr title  "Radio reception state, vector"
vector 174  Net80211_aodv.host[13].wlan[0].radio  receptionState:vector  ETV
attr interpolationmode  sample-hold
attr source  receptionStateChanged
attr title  "Radio reception state, vector"
vector 186  Net80211_aodv.host[14].wlan[0].radio  receptionState:vector  ETV
attr interpolationmode  sample-hold
attr source  receptionStateChanged
attr title  "Radio reception state, vector"
vector 198  Net80211_aodv.host[15].wlan[0].radio  receptionState:vector  ETV
attr interpolationmode  sample-hold
attr source  receptionStateChanged
attr title  "Radio reception state, vector"
vector 210  Net80211_aodv.host[16].wlan[0].radio  receptionState:vector  ETV
attr interpolationmode  sample-hold
attr source  receptionStateChanged
attr title  "Radio reception state, vector"
vector 222  Net80211_aodv.host[17].wlan[0].radio  receptionState:vector  ETV
attr interpolationmode  sample-hold
attr source  receptionStateChanged
attr title  "Radio reception state, vector"
vector 234  Net80211_aodv.host[18].wlan[0].radio  receptionState:vector  ETV
attr interpolationmode  sample-hold
attr source  receptionStateChanged
attr title  "Radio reception state, vector"
vector 246  Net80211_aodv.host[19].wlan[0].radio  receptionState:vector  ETV
attr interpolationmode  sample-hold
attr source  receptionStateChanged
attr title  "Radio reception state, vector"
vector 258  Net80211_aodv.host[20].wlan[0].radio  receptionState:vector  ETV
attr interpolationmode  sample-hold
attr source  receptionStateChanged
attr title  "Radio reception state, vector"
vector 270  Net80211_aodv.host[21].wlan[0].radio  receptionState:vector  ETV
attr interpolationmode  sample-hold
attr source  receptionStateChanged
attr title  "Radio reception state, vector"
vector 282  Net80211_aodv.host[22].wlan[0].radio  receptionState:vector  ETV
attr interpolationmode  sample-hold
attr source  receptionStateChanged
attr title  "Radio reception state, vector"
vector 294  Net80211_aodv.host[23].wlan[0].radio  receptionState:vector  ETV
attr interpolationmode  sample-hold
attr source  receptionStateChanged
attr title  "Radio reception state, vector"
vector 306  Net80211_aodv.host[24].wlan[0].radio  receptionState:vector  ETV
attr interpolationmode  sample-hold
attr source  receptionStateChanged
attr title  "Radio reception state, vector"
vector 318  Net80211_aodv.host[25].wlan[0].radio  receptionState:vector  ETV
attr interpolationmode  sample-hold
attr source  receptionStateChanged
attr title  "Radio reception state, vector"
vector 330  Net80211_aodv.host[26].wlan[0].radio  receptionState:vector  ETV
attr interpolationmode  sample-hold
attr source  receptionStateChanged
attr title  "Radio reception state, vector"
vector 342  Net80211_aodv.host[27].wlan[0].radio  receptionState:vector  ETV
attr interpolationmode  sample-hold
attr source  receptionStateChanged
attr title  "Radio reception state, vector"
vector 354  Net80211_aodv.host[28].wlan[0].radio  receptionState:vector  ETV
attr interpolationmode  sample-hold
attr source  receptionStateChanged
attr title  "Radio reception state, vector"
vector 366  Net80211_aodv.host[29].wlan[0].radio  receptionState:vector  ETV
attr interpolationmode  sample-hold
attr source  receptionStateChanged
attr title  "Radio reception state, vector"
vector 378  Net80211_aodv.host[30].wlan[0].radio  receptionState:vector  ETV
attr interpolationmode  sample-hold
attr source  receptionStateChanged
attr title  "Radio reception state, vector"
vector 390  Net80211_aodv.host[31].wlan[0].radio  receptionState:vector  ETV
attr interpolationmode  sample-hold
attr source  receptionStateChanged
attr title  "Radio reception state, vector"
vector 402  Net80211_aodv.host[32].wlan[0].radio  receptionState:vector  ETV
attr interpolationmode  sample-hold
attr source  receptionStateChanged
attr title  "Radio reception state, vector"
vector 414  Net80211_aodv.host[33].wlan[0].radio  receptionState:vector  ETV
attr interpolationmode  sample-hold
attr source  receptionStateChanged
attr title  "Radio reception state, vector"
vector 426  Net80211_aodv.host[34].wlan[0].radio  receptionState:vector  ETV
attr interpolationmode  sample-hold
attr source  receptionStateChanged
attr title  "Radio reception state, vector"
vector 438  Net80211_aodv.host[35].wlan[0].radio  receptionState:vector  ETV
attr interpolationmode  sample-hold
attr source  receptionStateChanged
attr title  "Radio reception state, vector"
vector 450  Net80211_aodv.host[36].wlan[0].radio  receptionState:vector  ETV
attr interpolationmode  sample-hold
attr source  receptionStateChanged
attr title  "Radio reception state, vector"
vector 462  Net80211_aodv.host[37].wlan[0].radio  receptionState:vector  ETV
attr interpolationmode  sample-hold
attr source  receptionStateChanged
attr title  "Radio reception state, vector"
vector 474  Net80211_aodv.host[38].wlan[0].radio  receptionState:vector  ETV
attr interpolationmode  sample-hold
attr source  receptionStateChanged
attr title  "Radio reception state, vector"
vector 486  Net80211_aodv.host[39].wlan[0].radio  receptionState:vector  ETV
attr interpolationmode  sample-hold
attr source  receptionStateChanged
attr title  "Radio reception state, vector"
vector 498  Net80211_aodv.host[40].wlan[0].radio  receptionState:vector  ETV
attr interpolationmode  sample-hold
attr source  receptionStateChanged
attr title  "Radio reception state, vector"
vector 510  Net80211_aodv.host[41].wlan[0].radio  receptionState:vector  ETV
attr interpolationmode  sample-hold
attr source  receptionStateChanged
attr title  "Radio reception state, vector"
vector 522  Net80211_aodv.host[42].wlan[0].radio  receptionState:vector  ETV
attr interpolationmode  sample-hold
attr source  receptionStateChanged
attr title  "Radio reception state, vector"
vector 534  Net80211_aodv.host[43].wlan[0].radio  receptionState:vector  ETV
attr interpolationmode  sample-hold
attr source  receptionStateChanged
attr title  "Radio reception state, vector"
vector 546  Net80211_aodv.host[44].wlan[0].radio  receptionState:vector  ETV
attr interpolationmode  sample-hold
attr source  receptionStateChanged
attr title  "Radio reception state, vector"
vector 558  Net80211_aodv.host[45].wlan[0].radio  receptionState:vector  ETV
attr interpolationmode  sample-hold
attr source  receptionStateChanged
attr title  "Radio reception state, vector"
vector 570  Net80211_aodv.host[46].wlan[0].radio  receptionState:vector  ETV
attr interpolationmode  sample-hold
attr source  receptionStateChanged
attr title  "Radio reception state, vector"
vector 582  Net80211_aodv.host[47].wlan[0].radio  receptionState:vector  ETV
attr interpolationmode  sample-hold
attr source  receptionStateChanged
attr title  "Radio reception state, vector"
vector 594  Net80211_aodv.host[48].wlan[0].radio  receptionState:vector  ETV
attr interpolationmode  sample-hold
attr source  receptionStateChanged
attr title  "Radio reception state, vector"
vector 606  Net80211_aodv.host[49].wlan[0].radio  receptionState:vector  ETV
attr interpolationmode  sample-hold
attr source  receptionStateChanged
attr title  "Radio reception state, vector"
vector 618  Net80211_aodv.host[50].wlan[0].radio  receptionState:vector  ETV
attr interpolationmode  sample-hold
attr source  receptionStateChanged
attr title  "Radio reception state, vector"
vector 630  Net80211_aodv.host[51].wlan[0].radio  receptionState:vector  ETV
attr interpolationmode  sample-hold
attr source  receptionStateChanged
attr title  "Radio reception state, vector"
vector 642  Net80211_aodv.host[52].wlan[0].radio  receptionState:vector  ETV
attr interpolationmode  sample-hold
attr source  receptionStateChanged
attr title  "Radio reception state, vector"
vector 654  Net80211_aodv.host[53].wlan[0].radio  receptionState:vector  ETV
attr interpolationmode  sample-hold
attr source  receptionStateChanged
attr title  "Radio reception state, vector"
vector 666  Net80211_aodv.host[54].wlan[0].radio  receptionState:vector  ETV
attr interpolationmode  sample-hold
attr source  receptionStateChanged
attr title  "Radio reception state, vector"
vector 678  Net80211_aodv.host[55].wlan[0].radio  receptionState:vector  ETV
attr interpolationmode  sample-hold
attr source  receptionStateChanged
attr title  "Radio reception state, vector"
vector 690  Net80211_aodv.host[56].wlan[0].radio  receptionState:vector  ETV
attr interpolationmode  sample-hold
attr source  receptionStateChanged
attr title  "Radio reception state, vector"
vector 702  Net80211_aodv.host[57].wlan[0].radio  receptionState:vector  ETV
attr interpolationmode  sample-hold
attr source  receptionStateChanged
attr title  "Radio reception state, vector"
vector 714  Net80211_aodv.host[58].wlan[0].radio  receptionState:vector  ETV
attr interpolationmode  sample-hold
attr source  receptionStateChanged
attr title  "Radio reception state, vector"
vector 726  Net80211_aodv.host[59].wlan[0].radio  receptionState:vector  ETV
attr interpolationmode  sample-hold
attr source  receptionStateChanged
attr title  "Radio reception state, vector"
vector 738  Net80211_aodv.host[60].wlan[0].radio  receptionState:vector  ETV
attr interpolationmode  sample-hold
attr source  receptionStateChanged
attr title  "Radio reception state, vector"
vector 750  Net80211_aodv.host[61].wlan[0].radio  receptionState:vector  ETV
attr interpolationmode  sample-hold
attr source  receptionStateChanged
attr title  "Radio reception state, vector"
vector 762  Net80211_aodv.host[62].wlan[0].radio  receptionState:vector  ETV
attr interpolationmode  sample-hold
attr source  receptionStateChanged
attr title  "Radio reception state, vector"
vector 774  Net80211_aodv.host[63].wlan[0].radio  receptionState:vector  ETV
attr interpolationmode  sample-hold
attr source  receptionStateChanged
attr title  "Radio reception state, vector"
vector 786  Net80211_aodv.host[64].wlan[0].radio  receptionState:vector  ETV
attr interpolationmode  sample-hold
attr source  receptionStateChanged
attr title  "Radio reception state, vector"
vector 798  Net80211_aodv.host[65].wlan[0].radio  receptionState:vector  ETV
attr interpolationmode  sample-hold
attr source  receptionStateChanged
attr title  "Radio reception state, vector"
vector 810  Net80211_aodv.host[66].wlan[0].radio  receptionState:vector  ETV
attr interpolationmode  sample-hold
attr source  receptionStateChanged
attr title  "Radio reception state, vector"
vector 822  Net80211_aodv.host[67].wlan[0].radio  receptionState:vector  ETV
attr interpolationmode  sample-hold
attr source  receptionStateChanged
attr title  "Radio reception state, vector"
vector 834  Net80211_aodv.host[68].wlan[0].radio  receptionState:vector  ETV
attr interpolationmode  sample-hold
attr source  receptionStateChanged
attr title  "Radio reception state, vector"
vector 846  Net80211_aodv.host[69].wlan[0].radio  receptionState:vector  ETV
attr interpolationmode  sample-hold
attr source  receptionStateChanged
attr title  "Radio reception state, vector"
vector 858  Net80211_aodv.host[70].wlan[0].radio  receptionState:vector  ETV
attr interpolationmode  sample-hold
attr source  receptionStateChanged
attr title  "Radio reception state, vector"
vector 870  Net80211_aodv.host[71].wlan[0].radio  receptionState:vector  ETV
attr interpolationmode  sample-hold
attr source  receptionStateChanged
attr title  "Radio reception state, vector"
vector 882  Net80211_aodv.host[72].wlan[0].radio  receptionState:vector  ETV
attr interpolationmode  sample-hold
attr source  receptionStateChanged
attr title  "Radio reception state, vector"
vector 894  Net80211_aodv.host[73].wlan[0].radio  receptionState:vector  ETV
attr interpolationmode  sample-hold
attr source  receptionStateChanged
attr title  "Radio reception state, vector"
vector 906  Net80211_aodv.host[74].wlan[0].radio  receptionState:vector  ETV
attr interpolationmode  sample-hold
attr source  receptionStateChanged
attr title  "Radio reception state, vector"
vector 918  Net80211_aodv.host[75].wlan[0].radio  receptionState:vector  ETV
attr interpolationmode  sample-hold
attr source  receptionStateChanged
attr title  "Radio reception state, vector"
vector 930  Net80211_aodv.host[76].wlan[0].radio  receptionState:vector  ETV
attr interpolationmode  sample-hold
attr source  receptionStateChanged
attr title  "Radio reception state, vector"
vector 942  Net80211_aodv.host[77].wlan[0].radio  receptionState:vector  ETV
attr interpolationmode  sample-hold
attr source  receptionStateChanged
attr title  "Radio reception state, vector"
vector 954  Net80211_aodv.host[78].wlan[0].radio  receptionState:vector  ETV
attr interpolationmode  sample-hold
attr source  receptionStateChanged
attr title  "Radio reception state, vector"
vector 966  Net80211_aodv.host[79].wlan[0].radio  receptionState:vector  ETV
attr interpolationmode  sample-hold
attr source  receptionStateChanged
attr title  "Radio reception state, vector"
vector 978  Net80211_aodv.host[80].wlan[0].radio  receptionState:vector  ETV
attr interpolationmode  sample-hold
attr source  receptionStateChanged
attr title  "Radio reception state, vector"
vector 990  Net80211_aodv.host[81].wlan[0].radio  receptionState:vector  ETV
attr interpolationmode  sample-hold
attr source  receptionStateChanged
attr title  "Radio reception state, vector"
vector 1002  Net80211_aodv.host[82].wlan[0].radio  receptionState:vector  ETV
attr interpolationmode  sample-hold
attr source  receptionStateChanged
attr title  "Radio reception state, vector"
vector 1014  Net80211_aodv.host[83].wlan[0].radio  receptionState:vector  ETV
attr interpolationmode  sample-hold
attr source  receptionStateChanged
attr title  "Radio reception state, vector"
vector 1026  Net80211_aodv.host[84].wlan[0].radio  receptionState:vector  ETV
attr interpolationmode  sample-hold
attr source  receptionStateChanged
attr title  "Radio reception state, vector"
vector 1038  Net80211_aodv.host[85].wlan[0].radio  receptionState:vector  ETV
attr interpolationmode  sample-hold
attr source  receptionStateChanged
attr title  "Radio reception state, vector"
vector 1050  Net80211_aodv.host[86].wlan[0].radio  receptionState:vector  ETV
attr interpolationmode  sample-hold
attr source  receptionStateChanged
attr title  "Radio reception state, vector"
vector 1062  Net80211_aodv.host[87].wlan[0].radio  receptionState:vector  ETV
attr interpolationmode  sample-hold
attr source  receptionStateChanged
attr title  "Radio reception state, vector"
vector 1074  Net80211_aodv.host[88].wlan[0].radio  receptionState:vector  ETV
attr interpolationmode  sample-hold
attr source  receptionStateChanged
attr title  "Radio reception state, vector"
vector 1086  Net80211_aodv.host[89].wlan[0].radio  receptionState:vector  ETV
attr interpolationmode  sample-hold
attr source  receptionStateChanged
attr title  "Radio reception state, vector"
vector 1098  Net80211_aodv.host[90].wlan[0].radio  receptionState:vector  ETV
attr interpolationmode  sample-hold
attr source  receptionStateChanged
attr title  "Radio reception state, vector"
vector 1110  Net80211_aodv.host[91].wlan[0].radio  receptionState:vector  ETV
attr interpolationmode  sample-hold
attr source  receptionStateChanged
attr title  "Radio reception state, vector"
vector 1122  Net80211_aodv.host[92].wlan[0].radio  receptionState:vector  ETV
attr interpolationmode  sample-hold
attr source  receptionStateChanged
attr title  "Radio reception state, vector"
vector 1134  Net80211_aodv.host[93].wlan[0].radio  receptionState:vector  ETV
attr interpolationmode  sample-hold
attr source  receptionStateChanged
attr title  "Radio reception state, vector"
vector 1146  Net80211_aodv.host[94].wlan[0].radio  receptionState:vector  ETV
attr interpolationmode  sample-hold
attr source  receptionStateChanged
attr title  "Radio reception state, vector"
vector 1158  Net80211_aodv.host[95].wlan[0].radio  receptionState:vector  ETV
attr interpolationmode  sample-hold
attr source  receptionStateChanged
attr title  "Radio reception state, vector"
vector 1170  Net80211_aodv.host[96].wlan[0].radio  receptionState:vector  ETV
attr interpolationmode  sample-hold
attr source  receptionStateChanged
attr title  "Radio reception state, vector"
vector 1182  Net80211_aodv.host[97].wlan[0].radio  receptionState:vector  ETV
attr interpolationmode  sample-hold
attr source  receptionStateChanged
attr title  "Radio reception state, vector"
vector 1194  Net80211_aodv.host[98].wlan[0].radio  receptionState:vector  ETV
attr interpolationmode  sample-hold
attr source  receptionStateChanged
attr title  "Radio reception state, vector"
vector 1206  Net80211_aodv.host[99].wlan[0].radio  receptionState:vector  ETV
attr interpolationmode  sample-hold
attr source  receptionStateChanged
attr title  "Radio reception state, vector"
vector 1226  Net80211_aodv.fixhost.wlan[0].radio  receptionState:vector  ETV
attr interpolationmode  sample-hold
attr source  receptionStateChanged
attr title  "Radio reception state, vector"
vector 0  Net80211_aodv.host[0].udpApp[0]  sentPk:vector(packetBytes)  ETV
attr interpolationmode  none
attr source  sentPk
attr title  "packets sent, vector(packetBytes)"
vector 5  Net80211_aodv.host[0].udp  sentPk:vector(packetBytes)  ETV
attr interpolationmode  none
attr source  sentPk
attr title  "packets sent, vector(packetBytes)"
vector 15  Net80211_aodv.host[0].wlan[0].mac  rcvdPkFromHL:vector(packetBytes)  ETV
attr interpolationmode  none
attr source  packetReceivedFromUpper
attr title  "packets received from higher layer, vector(packetBytes)"
vector 14  Net80211_aodv.host[0].wlan[0].mac  sentDownPk:vector(packetBytes)  ETV
attr interpolationmode  none
attr source  packetSentToLower
attr title  "packets sent to lower layer, vector(packetBytes)"
vector 19  Net80211_aodv.host[0].wlan[0].radio  transmissionState:vector  ETV
attr interpolationmode  sample-hold
attr source  transmissionStateChanged
attr title  "Radio transmission state, vector"
vector 184  Net80211_aodv.host[14].wlan[0].mac  rcvdPkFromLL:vector(packetBytes)  ETV
attr interpolationmode  none
attr source  packetReceivedFromLower
attr title  "packets received from lower layer, vector(packetBytes)"
vector 181  Net80211_aodv.host[14].wlan[0].mac  passedUpPk:vector(packetBytes)  ETV
attr interpolationmode  none
attr source  packetSentToUpper
attr title  "packets passed to higher layer, vector(packetBytes)"
vector 1024  Net80211_aodv.host[84].wlan[0].mac  rcvdPkFromLL:vector(packetBytes)  ETV
attr interpolationmode  none
attr source  packetReceivedFromLower
attr title  "packets received from lower layer, vector(packetBytes)"
vector 1021  Net80211_aodv.host[84].wlan[0].mac  passedUpPk:vector(packetBytes)  ETV
attr interpolationmode  none
attr source  packetSentToUpper
attr title  "packets passed to higher layer, vector(packetBytes)"
vector 364  Net80211_aodv.host[29].wlan[0].mac  rcvdPkFromLL:vector(packetBytes)  ETV
attr interpolationmode  none
attr source  packetReceivedFromLower
attr title  "packets received from lower layer, vector(packetBytes)"
vector 361  Net80211_aodv.host[29].wlan[0].mac  passedUpPk:vector(packetBytes)  ETV
attr interpolationmode  none
attr source  packetSentToUpper
attr title  "packets passed to higher layer, vector(packetBytes)"
vector 1023  Net80211_aodv.host[84].wlan[0].mac  rcvdPkFromHL:vector(packetBytes)  ETV
attr interpolationmode  none
attr source  packetReceivedFromUpper
attr title  "packets received from higher layer, vector(packetBytes)"
vector 1022  Net80211_aodv.host[84].wlan[0].mac  sentDownPk:vector(packetBytes)  ETV
attr interpolationmode  none
attr source  packetSentToLower
attr title  "packets sent to lower layer, vector(packetBytes)"
vector 1027  Net80211_aodv.host[84].wlan[0].radio  transmissionState:vector  ETV
attr interpolationmode  sample-hold
attr source  transmissionStateChanged
attr title  "Radio transmission state, vector"
vector 280  Net80211_aodv.host[22].wlan[0].mac  rcvdPkFromLL:vector(packetBytes)  ETV
attr interpolationmode  none
attr source  packetReceivedFromLower
attr title  "packets received from lower layer, vector(packetBytes)"
vector 277  Net80211_aodv.host[22].wlan[0].mac  passedUpPk:vector(packetBytes)  ETV
attr interpolationmode  none
attr source  packetSentToUpper
attr title  "packets passed to higher layer, vector(packetBytes)"
vector 100  Net80211_aodv.host[7].wlan[0].mac  rcvdPkFromLL:vector(packetBytes)  ETV
attr interpolationmode  none
attr source  packetReceivedFromLower
attr title  "packets received from lower layer, vector(packetBytes)"
vector 97  Net80211_aodv.host[7].wlan[0].mac  passedUpPk:vector(packetBytes)  ETV
attr interpolationmode  none
attr source  packetSentToUpper
attr title  "packets passed to higher layer, vector(packetBytes)"
vector 16  Net80211_aodv.host[0].wlan[0].mac  rcvdPkFromLL:vector(packetBytes)  ETV
attr interpolationmode  none
attr source  packetReceivedFromLower
attr title  "packets received from lower layer, vector(packetBytes)"
vector 13  Net80211_aodv.host[0].wlan[0].mac  passedUpPk:vector(packetBytes)  ETV
attr interpolationmode  none
attr source  packetSentToUpper
attr title  "packets passed to higher layer, vector(packetBytes)"
vector 99  Net80211_aodv.host[7].wlan[0].mac  rcvdPkFromHL:vector(packetBytes)  ETV
attr interpolationmode  none
attr source  packetReceivedFromUpper
attr title  "packets received from higher layer, vector(packetBytes)"
vector 98  Net80211_aodv.host[7].wlan[0].mac  sentDownPk:vector(packetBytes)  ETV
attr interpolationmode  none
attr source  packetSentToLower
attr title  "packets sent to lower layer, vector(packetBytes)"
vector 103  Net80211_aodv.host[7].wlan[0].radio  transmissionState:vector  ETV
attr interpolationmode  sample-hold
attr source  transmissionStateChanged
attr title  "Radio transmission state, vector"
vector 796  Net80211_aodv.host[65].wlan[0].mac  rcvdPkFromLL:vector(packetBytes)  ETV
attr interpolationmode  none
attr source  packetReceivedFromLower
attr title  "packets received from lower layer, vector(packetBytes)"
vector 793  Net80211_aodv.host[65].wlan[0].mac  passedUpPk:vector(packetBytes)  ETV
attr interpolationmode  none
attr source  packetSentToUpper
attr title  "packets passed to higher layer, vector(packetBytes)"
vector 220  Net80211_aodv.host[17].wlan[0].mac  rcvdPkFromLL:vector(packetBytes)  ETV
attr interpolationmode  none
attr source  packetReceivedFromLower
attr title  "packets received from lower layer, vector(packetBytes)"
vector 217  Net80211_aodv.host[17].wlan[0].mac  passedUpPk:vector(packetBytes)  ETV
attr interpolationmode  none
attr source  packetSentToUpper
attr title  "packets passed to higher layer, vector(packetBytes)"
vector 363  Net80211_aodv.host[29].wlan[0].mac  rcvdPkFromHL:vector(packetBytes)  ETV
[...]
304	182281 86 9787 24994 11.214950835708 14.901267404356 3 88 88 264 23232
305	182367 132 0 26265 0 14.904282908078 6 0 3 12 30
306	182499 288 0 26265 0 14.904282908078 11 0 3 15 33
307	182787 224 17081 26265 11.946719405951 14.904282908078 8 0 2 8 12
308	183011 10 0 0 0 0 1 0 0 0 0
309	183021 932 0 26265 0 14.904282908078 36 0 3 32 88
313	183953 369 5162 23567 10.651295573443 14.898605689887 13 88 88 1144 100672
314	184322 86 7760 22265 11.210260048767 14.895576298572 3 88 88 264 23232
315	184408 86 7758 22263 11.210260048767 14.895576298572 3 88 88 264 23232
316	184494 369 5162 23567 10.651295573443 14.898605689887 13 88 88 1144 100672
317	184863 186 0 22370 0 14.895726298572 8 0 3 17 43
318	185049 944 0 23566 0 14.898605689887 35 0 3 59 139
319	185993 332 7761 22370 11.210260048767 14.895726298572 12 0 2 12 18
320	186325 10 0 0 0 0 1 0 0 0 0
321	186335 2406 0 23566 0 14.898605689887 90 0 3 48 132
329	188741 20 0 0 0 0 2 0 2 2 4
330	188761 10 0 0 0 0 1 1 1 1 1
332	188771 10 0 0 0 0 1 0 0 0 0
333	188781 40 0 0 0 0 4 0 0 0 0
341	188821 20 0 0 0 0 2 0 2 2 4
342	188841 10 0 0 0 0 1 1 1 1 1
344	188851 10 0 0 0 0 1 0 0 0 0
345	188861 40 0 0 0 0 4 0 0 0 0
353	188901 20 0 0 0 0 2 0 2 2 4
354	188921 10 0 0 0 0 1 1 1 1 1
356	188931 10 0 0 0 0 1 0 0 0 0
357	188941 40 0 0 0 0 4 0 0 0 0
361	188981 592 1446 21201 10.000363471182 14.8869137977 21 88 88 1848 162624
362	189573 141 2470 20845 10.246626665915 14.88650091614 5 88 88 440 38720
363	189714 141 2468 20843 10.246626665915 14.88650091614 5 88 88 440 38720
364	189855 592 1446 21201 10.000363471182 14.8869137977 21 88 88 1848 162624
365	190447 292 0 20949 0 14.88665091614 12 0 3 27 69
366	190739 1424 0 21200 0 14.8869137977 53 0 3 90 216
367	192163 544 2471 20949 10.246626665915 14.88665091614 20 0 2 20 30
368	192707 10 0 0 0 0 1 0 0 0 0
369	192717 3684 0 21200 0 14.8869137977 138 0 3 82 222
377	196401 20 0 0 0 0 2 0 2 2 4
378	196421 10 0 0 0 0 1 1 1 1 1
380	196431 10 0 0 0 0 1 0 0 0 0
381	196441 40 0 0 0 0 4 0 0 0 0
389	196481 20 0 0 0 0 2 0 2 2 4
390	196501 10 0 0 0 0 1 1 1 1 1
392	196511 10 0 0 0 0 1 0 0 0 0
393	196521 40 0 0 0 0 4 0 0 0 0
401	196561 20 0 0 0 0 2 0 2 2 4
402	196581 10 0 0 0 0 1 1 1 1 1
404	196591 10 0 0 0 0 1 0 0 0 0
405	196601 40 0 0 0 0 4 0 0 0 0
413	196641 20 0 0 0 0 2 0 2 2 4
414	196661 10 0 0 0 0 1 1 1 1 1
416	196671 10 0 0 0 0 1 0 0 0 0
417	196681 40 0 0 0 0 4 0 0 0 0
425	196721 20 0 0 0 0 2 0 2 2 4
426	196741 10 0 0 0 0 1 1 1 1 1
428	196751 10 0 0 0 0 1 0 0 0 0
429	196761 40 0 0 0 0 4 0 0 0 0
437	196801 20 0 0 0 0 2 0 2 2 4
438	196821 10 0 0 0 0 1 1 1 1 1
440	196831 10 0 0 0 0 1 0 0 0 0
441	196841 40 0 0 0 0 4 0 0 0 0
449	196881 20 0 0 0 0 2 0 2 2 4
450	196901 10 0 0 0 0 1 1 1 1 1
452	196911 10 0 0 0 0 1 0 0 0 0
453	196921 40 0 0 0 0 4 0 0 0 0
461	196961 20 0 0 0 0 2 0 2 2 4
462	196981 10 0 0 0 0 1 1 1 1 1
464	196991 10 0 0 0 0 1 0 0 0 0
465	197001 40 0 0 0 0 4 0 0 0 0
469	197041 373 8601 27543 11.212467812116 14.907400799382 13 88 88 1144 100672
470	197414 87 10394 25810 11.216813324936 14.903590790428 3 88 88 264 23232
471	197501 87 10392 25808 11.216813324936 14.903590790428 3 88 88 264 23232
472	197588 373 8601 27543 11.212467812116 14.907400799382 13 88 88 1144 100672
473	197961 188 0 25914 0 14.903740790428 8 0 3 17 43
474	198149 897 0 27542 0 14.907400799382 33 0 3 56 134
475	199046 336 10395 25914 11.216813324936 14.903740790428 12 0 2 12 18
476	199382 10 0 0 0 0 1 0 0 0 0
477	199392 2318 0 27542 0 14.907400799382 86 0 3 48 132
481	201710 115 18104 27757 11.954700905377 14.90764757524 4 88 88 352 30976
482	201825 58 18693 27203 11.956840180597 14.907156522122 2 88 88 176 15488
483	201883 58 18691 27201 11.956840180597 14.907156522122 2 88 88 176 15488
484	201941 115 18104 27757 11.954700905377 14.90764757524 4 88 88 352 30976
485	202056 132 0 27417 0 14.907306522122 6 0 3 12 30
486	202188 344 0 27756 0 14.90764757524 13 0 3 19 43
487	202532 224 18694 27417 11.956840180597 14.907306522122 8 0 2 8 12
488	202756 10 0 0 0 0 1 0 0 0 0
489	202766 1044 0 27756 0 14.90764757524 40 0 3 32 88
497	203810 20 0 0 0 0 2 0 2 2 4
498	203830 10 0 0 0 0 1 1 1 1 1
500	203840 10 0 0 0 0 1 0 0 0 0
501	203850 40 0 0 0 0 4 0 0 0 0
509	203890 20 0 0 0 0 2 0 2 2 4
510	203910 10 0 0 0 0 1 1 1 1 1
512	203920 10 0 0 0 0 1 0 0 0 0
513	203930 40 0 0 0 0 4 0 0 0 0
517	203970 540 5174 23803 10.651295926989 14.899365170803 19 88 88 1672 147136
518	204510 85 7995 23441 11.211061339764 14.89845439889 3 88 88 264 23232
519	204595 85 7993 23439 11.210643589861 14.89845439889 3 88 88 264 23232
520	204680 540 5174 23803 10.651295926989 14.899365170803 19 88 88 1672 147136
521	205220 184 0 23545 0 14.89860439889 8 0 3 17 43
522	205404 1216 0 23802 0 14.899365170803 45 0 3 80 194
523	206620 328 7996 23545 11.211061339764 14.89860439889 12 0 2 12 18
524	206948 10 0 0 0 0 1 0 0 0 0
525	206958 2944 0 23802 0 14.899365170803 110 0 3 54 142
529	209902 462 8118 26382 11.211212561119 14.904402264984 16 88 88 1408 123904
530	210364 86 8495 23689 11.212316671785 14.899213949448 3 88 88 264 23232
531	210450 86 8493 23687 11.212316671785 14.899213949448 3 88 88 264 23232
532	210536 490 8118 26382 11.211212561119 14.904402264984 17 88 88 1496 131648
533	211026 186 0 23793 0 14.899363949448 8 0 3 17 43
534	211212 1148 0 26381 0 14.904402264984 42 0 3 74 178
535	212360 332 8496 23793 11.212316671785 14.899363949448 12 0 2 12 18
536	212692 10 0 0 0 0 1 0 0 0 0
537	212702 2814 0 26381 0 14.904402264984 104 0 3 48 132
545	215516 20 0 0 0 0 2 0 2 2 4
546	215536 10 0 0 0 0 1 1 1 1 1
548	215546 10 0 0 0 0 1 0 0 0 0
549	215556 40 0 0 0 0 4 0 0 0 0
557	215596 20 0 0 0 0 2 0 2 2 4
558	215616 10 0 0 0 0 1 1 1 1 1
560	215626 10 0 0 0 0 1 0 0 0 0
561	215636 40 0 0 0 0 4 0 0 0 0
565	215676 172 17630 27985 11.949748920908 14.91035799932 6 88 88 528 46464
566	215848 57 17757 26971 11.952434952166 14.90553854528 2 88 88 176 15488
567	215905 58 17755 26969 11.952434952166 14.905445547016 2 88 88 176 15488
568	215963 172 17630 27985 11.949748920908 14.91035799932 6 88 88 528 46464
569	216135 130 0 27075 0 14.90568854528 6 0 3 12 30
570	216265 507 0 27984 0 14.91035799932 19 0 3 30 68
571	216772 220 17758 27075 11.952434952166 14.90568854528 8 0 2 8 12
572	216992 10 0 0 0 0 1 0 0 0 0
573	217002 1366 0 27984 0 14.91035799932 52 0 3 32 88
581	218368 20 0 0 0 0 2 0 2 2 4
582	218388 10 0 0 0 0 1 1 1 1 1
584	218398 10 0 0 0 0 1 0 0 0 0
585	218408 40 0 0 0 0 4 0 0 0 0
589	218448 116 16018 25456 11.944493824628 14.901915471477 4 88 88 352 30976
590	218564 58 17298 25123 11.947420189007 14.901503764671 2 88 88 176 15488
591	218622 58 17296 25121 11.947420189007 14.901503764671 2 88 88 176 15488
592	218680 116 16018 25456 11.944493824628 14.901915471477 4 88 88 352 30976
593	218796 132 0 25227 0 14.901653764671 6 0 3 12 30
594	218928 402 0 26268 0 14.904284782739 15 0 3 22 48
595	219330 224 17299 25227 11.947420189007 14.901653764671 8 0 2 8 12
596	219554 10 0 0 0 0 1 0 0 0 0
597	219564 1160 0 26268 0 14.904284782739 44 0 3 32 88
605	220724 20 0 0 0 0 2 0 2 2 4
606	220744 10 0 0 0 0 1 1 1 1 1
608	220754 10 0 0 0 0 1 0 0 0 0
609	220764 40 0 0 0 0 4 0 0 0 0
617	220804 20 0 0 0 0 2 0 2 2 4
618	220824 10 0 0 0 0 1 1 1 1 1
620	220834 10 0 0 0 0 1 0 0 0 0
621	220844 40 0 0 0 0 4 0 0 0 0
629	220884 20 0 0 0 0 2 0 2 2 4
630	220904 10 0 0 0 0 1 1 1 1 1
632	220914 10 0 0 0 0 1 0 0 0 0
633	220924 40 0 0 0 0 4 0 0 0 0
641	220964 20 0 0 0 0 2 0 2 2 4
642	220984 10 0 0 0 0 1 1 1 1 1
644	220994 10 0 0 0 0 1 0 0 0 0
645	221004 40 0 0 0 0 4 0 0 0 0
653	221044 20 0 0 0 0 2 0 2 2 4
654	221064 10 0 0 0 0 1 1 1 1 1
656	221074 10 0 0 0 0 1 0 0 0 0
657	221084 40 0 0 0 0 4 0 0 0 0
665	221124 20 0 0 0 0 2 0 2 2 4
666	221144 10 0 0 0 0 1 1 1 1 1
668	221154 10 0 0 0 0 1 0 0 0 0
669	221164 40 0 0 0 0 4 0 0 0 0
677	221204 20 0 0 0 0 2 0 2 2 4
678	221224 10 0 0 0 0 1 1 1 1 1
680	221234 10 0 0 0 0 1 0 0 0 0
681	221244 40 0 0 0 0 4 0 0 0 0
685	221284 375 8617 25916 11.212467947824 14.903740988945 13 88 88 1144 100672
686	221659 86 9916 26161 11.215032792629 14.904250988945 3 88 88 264 23232
687	221745 86 9914 26049 11.215032792629 14.903908464208 3 88 88 264 23232
688	221831 375 8617 25916 11.212467947824 14.903740988945 13 88 88 1144 100672
689	222206 187 0 26368 0 14.904400988945 8 0 3 17 43
690	222393 957 0 27448 0 14.907311789404 35 0 3 59 139
691	223350 334 9917 26368 11.215032792629 14.904400988945 12 0 2 12 18
692	223684 10 0 0 0 0 1 0 0 0 0
693	223694 2434 0 27448 0 14.907311789404 90 0 3 48 132
701	226128 20 0 0 0 0 2 0 2 2 4
702	226148 10 0 0 0 0 1 1 1 1 1
704	226158 10 0 0 0 0 1 0 0 0 0
705	226168 40 0 0 0 0 4 0 0 0 0
713	226208 20 0 0 0 0 2 0 2 2 4
714	226228 10 0 0 0 0 1 1 1 1 1
716	226238 10 0 0 0 0 1 0 0 0 0
717	226248 40 0 0 0 0 4 0 0 0 0
725	226288 20 0 0 0 0 2 0 2 2 4
726	226308 10 0 0 0 0 1 1 1 1 1
728	226318 10 0 0 0 0 1 0 0 0 0
729	226328 40 0 0 0 0 4 0 0 0 0
733	226368 571 7630 25006 11.209598402708 14.901267588431 20 88 88 1760 154880
734	226939 86 8242 22985 11.211802229631 14.897086841039 3 88 88 264 23232
735	227025 86 8102 22983 11.211208318574 14.897086841039 3 88 88 264 23232
736	227111 599 7630 25006 11.209598402708 14.901267588431 21 88 88 1848 162624
737	227710 186 0 23198 0 14.897236841039 8 0 3 17 43
738	227896 1332 0 25005 0 14.901267588431 49 0 3 88 214
739	229228 332 8243 23198 11.211802229631 14.897236841039 12 0 2 12 18
740	229560 10 0 0 0 0 1 0 0 0 0
741	229570 3236 0 25005 0 14.901267588431 120 0 3 50 134
749	232806 20 0 0 0 0 2 0 2 2 4
750	232826 10 0 0 0 0 1 1 1 1 1
752	232836 10 0 0 0 0 1 0 0 0 0
753	232846 40 0 0 0 0 4 0 0 0 0
761	232886 20 0 0 0 0 2 0 2 2 4
762	232906 10 0 0 0 0 1 1 1 1 1
764	232916 10 0 0 0 0 1 0 0 0 0
765	232926 40 0 0 0 0 4 0 0 0 0
773	232966 20 0 0 0 0 2 0 2 2 4
774	232986 10 0 0 0 0 1 1 1 1 1
776	232996 10 0 0 0 0 1 0 0 0 0
777	233006 40 0 0 0 0 4 0 0 0 0
785	233046 20 0 0 0 0 2 0 2 2 4
786	233066 10 0 0 0 0 1 1 1 1 1
788	233076 10 0 0 0 0 1 0 0 0 0
789	233086 40 0 0 0 0 4 0 0 0 0
793	233126 342 2341 21897 10.245141101757 14.893951745265 12 88 88 1056 92928
794	233468 114 4827 21545 10.647660678471 14.888784242891 4 88 88 352 30976
795	233582 114 4825 21543 10.647660678471 14.888784242891 4 88 88 352 30976
796	233696 370 2341 21897 10.245141101757 14.893951745265 13 88 88 1144 100672
797	234066 240 0 21649 0 14.888934242891 10 0 3 22 56
798	234306 970 0 21896 0 14.893951745265 36 0 3 59 139
799	235276 440 4828 21649 10.647660678471 14.888934242891 16 0 2 16 24
800	235716 10 0 0 0 0 1 0 0 0 0
801	235726 2620 0 21896 0 14.893951745265 98 0 3 64 176
809	238346 20 0 0 0 0 2 0 2 2 4
810	238366 10 0 0 0 0 1 1 1 1 1
812	238376 10 0 0 0 0 1 0 0 0 0
813	238386 40 0 0 0 0 4 0 0 0 0
821	238426 20 0 0 0 0 2 0 2 2 4
822	238446 10 0 0 0 0 1 1 1 1 1
824	238456 10 0 0 0 0 1 0 0 0 0
825	238466 40 0 0 0 0 4 0 0 0 0
833	238506 20 0 0 0 0 2 0 2 2 4
834	238526 10 0 0 0 0 1 1 1 1 1
836	238536 10 0 0 0 0 1 0 0 0 0
837	238546 40 0 0 0 0 4 0 0 0 0
845	238586 20 0 0 0 0 2 0 2 2 4
846	238606 10 0 0 0 0 1 1 1 1 1
848	238616 10 0 0 0 0 1 0 0 0 0
849	238626 40 0 0 0 0 4 0 0 0 0
853	238666 115 18350 28231 11.955977574536 14.91417804405 4 88 88 352 30976
854	238781 57 18469 28349 11.956147574536 14.91426804405 2 88 88 176 15488
855	238838 57 18467 28227 11.956093540539 14.91412806755 2 88 88 176 15488
856	238895 115 18350 28231 11.955977574536 14.91417804405 4 88 88 352 30976
857	239010 130 0 28455 0 14.91441804405 6 0 3 12 30
858	239140 342 0 28455 0 14.91441804405 13 0 3 19 43
859	239482 220 18470 28455 11.956147574536 14.91441804405 8 0 2 8 12
860	239702 10 0 0 0 0 1 0 0 0 0
861	239712 1034 0 28455 0 14.91441804405 40 0 3 34 90
869	240746 20 0 0 0 0 2 0 2 2 4
870	240766 10 0 0 0 0 1 1 1 1 1
872	240776 10 0 0 0 0 1 0 0 0 0
873	240786 40 0 0 0 0 4 0 0 0 0
881	240826 20 0 0 0 0 2 0 2 2 4
882	240846 10 0 0 0 0 1 1 1 1 1
884	240856 10 0 0 0 0 1 0 0 0 0
885	240866 40 0 0 0 0 4 0 0 0 0
893	240906 20 0 0 0 0 2 0 2 2 4
894	240926 10 0 0 0 0 1 1 1 1 1
896	240936 10 0 0 0 0 1 0 0 0 0
897	240946 40 0 0 0 0 4 0 0 0 0
905	240986 20 0 0 0 0 2 0 2 2 4
906	241006 10 0 0 0 0 1 1 1 1 1
908	241016 10 0 0 0 0 1 0 0 0 0
909	241026 40 0 0 0 0 4 0 0 0 0
917	241066 20 0 0 0 0 2 0 2 2 4
918	241086 10 0 0 0 0 1 1 1 1 1
920	241096 10 0 0 0 0 1 0 0 0 0
921	241106 40 0 0 0 0 4 0 0 0 0
929	241146 20 0 0 0 0 2 0 2 2 4
930	241166 10 0 0 0 0 1 1 1 1 1
932	241176 10 0 0 0 0 1 0 0 0 0
933	241186 40 0 0 0 0 4 0 0 0 0
941	241226 20 0 0 0 0 2 0 2 2 4
942	241246 10 0 0 0 0 1 1 1 1 1
944	241256 10 0 0 0 0 1 0 0 0 0
945	241266 40 0 0 0 0 4 0 0 0 0
953	241306 20 0 0 0 0 2 0 2 2 4
954	241326 10 0 0 0 0 1 1 1 1 1
956	241336 10 0 0 0 0 1 0 0 0 0
957	241346 40 0 0 0 0 4 0 0 0 0
961	241386 199 9566 27081 11.21475808054 14.90568944745 7 88 88 616 54208
962	241585 58 17524 24659 11.949598018738 14.900949978382 2 88 88 176 15488
963	241643 58 17522 24657 11.949598018738 14.900949978382 2 88 88 176 15488
964	241701 199 9566 27081 11.21475808054 14.90568944745 7 88 88 616 54208
965	241900 132 0 24763 0 14.901099978382 6 0 3 12 30
966	242032 506 0 27080 0 14.90568944745 19 0 3 31 73
967	242538 224 17525 24763 11.949598018738 14.901099978382 8 0 2 8 12
968	242762 10 0 0 0 0 1 0 0 0 0
969	242772 1368 0 27080 0 14.90568944745 52 0 3 32 88
973	244140 287 10038 26614 11.21518426787 14.904931751805 10 88 88 880 77440
974	244427 58 15908 25346 11.944342971225 14.901764618074 2 88 88 176 15488
975	244485 58 15906 25344 11.944342971225 14.901718303285 2 88 88 176 15488
976	244543 316 10038 26614 11.21518426787 14.904931751805 11 88 88 968 85184
977	244859 132 0 25450 0 14.901914618074 6 0 3 12 30
978	244991 731 0 26613 0 14.904931751805 27 0 3 47 113
979	245722 224 15909 25450 11.944342971225 14.901914618074 8 0 2 8 12
980	245946 10 0 0 0 0 1 0 0 0 0
981	245956 1874 0 26613 0 14.904931751805 70 0 3 32 88
985	247830 285 8368 25002 11.211953567426 14.901267576471 10 88 88 880 77440
986	248115 87 10157 24177 11.215435928023 14.900365652035 3 88 88 264 23232
987	248202 87 10155 24175 11.215435928023 14.900365652035 3 88 88 264 23232
988	248289 314 8368 25002 11.211953567426 14.901267576471 11 88 88 968 85184
989	248603 188 0 24286 0 14.900515652035 8 0 3 17 43
990	248791 811 0 25001 0 14.901267576471 30 0 3 50 118
991	249602 336 10158 24286 11.215435928023 14.900515652035 12 0 2 12 18
992	249938 10 0 0 0 0 1 0 0 0 0
993	249948 2146 0 25001 0 14.901267576471 80 0 3 48 132
1001	252094 22 0 0 0 0 2 0 2 2 4
1002	252116 11 0 0 0 0 1 1 1 1 1
1004	252127 11 0 0 0 0 1 0 0 0 0
1005	252138 44 0 0 0 0 4 0 0 0 0
1013	252182 22 0 0 0 0 2 0 2 2 4
1014	252204 11 0 0 0 0 1 1 1 1 1
1016	252215 11 0 0 0 0 1 0 0 0 0
1017	252226 44 0 0 0 0 4 0 0 0 0
1021	252270 763 1442 21181 10.000363361515 14.886913137546 26 88 88 2288 201344
1022	253033 146 1982 20129 10.244012604653 14.88425238901 5 88 88 440 38720
1023	253179 146 1980 20127 10.243872828687 14.88425238901 5 88 88 440 38720
1024	253325 763 1442 21181 10.000363361515 14.886913137546 26 88 88 2288 201344
1025	254088 304 0 20233 0 14.88440238901 12 0 3 27 69
1026	254392 1767 0 21180 0 14.886913137546 63 0 3 110 266
1027	256159 564 1983 20233 10.244012604653 14.88440238901 20 0 2 20 30
1028	256723 11 0 0 0 0 1 0 0 0 0
1029	256734 4402 0 21180 0 14.886913137546 158 0 3 80 220
1033	261136 472 4941 23563 10.647812025243 14.898605666296 16 88 88 1408 123904
1034	261608 117 5056 21775 10.651144659583 14.893800398493 4 88 88 352 30976
1035	261725 117 5054 21773 10.651144659583 14.893800398493 4 88 88 352 30976
1036	261842 472 4941 23563 10.647812025243 14.898605666296 16 88 88 1408 123904
1037	262314 248 0 21879 0 14.893950398493 10 0 3 22 56
1038	262562 1149 0 23562 0 14.898605666296 41 0 3 69 165
1039	263711 452 5057 21879 10.651144659583 14.893950398493 16 0 2 16 24
1040	264163 11 0 0 0 0 1 0 0 0 0
1041	264174 2998 0 23562 0 14.898605666296 108 0 3 64 176
1045	267172 240 15551 27539 11.943768651393 14.907399850491 8 88 88 704 61952
1046	267412 60 16621 26500 11.945771180087 14.904780327865 2 88 88 176 15488
1047	267472 60 16619 26498 11.945771180087 14.904780327865 2 88 88 176 15488
1048	267532 240 15551 27539 11.943768651393 14.907399850491 8 88 88 704 61952
1049	267772 138 0 26604 0 14.904930327865 6 0 3 12 30
1050	267910 649 0 27538 0 14.907399850491 23 0 3 38 88
1051	268559 232 16622 26604 11.945771180087 14.904930327865 8 0 2 8 12
1052	268791 11 0 0 0 0 1 0 0 0 0
1053	268802 1668 0 27538 0 14.907399850491 60 0 3 32 88
1061	270470 22 0 0 0 0 2 0 2 2 4
1062	270492 11 0 0 0 0 1 1 1 1 1
1064	270503 11 0 0 0 0 1 0 0 0 0
1065	270514 44 0 0 0 0 4 0 0 0 0
1073	270558 22 0 0 0 0 2 0 2 2 4
1074	270580 11 0 0 0 0 1 1 1 1 1
1076	270591 11 0 0 0 0 1 0 0 0 0
1077	270602 44 0 0 0 0 4 0 0 0 0
1081	270646 448 9096 26618 11.213966026178 14.904931802731 15 88 88 1320 116160
1082	271094 60 16373 24412 11.944963439012 14.900713597908 2 88 88 176 15488
1083	271154 59 16251 24284 11.944743927932 14.90049139483 2 88 88 176 15488
1084	271213 448 9096 26618 11.213966026178 14.904931802731 15 88 88 1320 116160
1085	271661 138 0 24516 0 14.900863597908 6 0 3 12 30
1086	271799 992 0 26617 0 14.904931802731 35 0 3 63 153
1087	272791 232 16374 24516 11.944963439012 14.900863597908 8 0 2 8 12
1088	273023 11 0 0 0 0 1 0 0 0 0
1089	273034 2352 0 26617 0 14.904931802731 84 0 3 32 88
1093	275386 559 5170 23551 10.651295920599 14.898605240958 19 88 88 1672 147136
1094	275945 89 7512 22017 11.209447343949 14.895077972922 3 88 88 264 23232
1095	276034 89 7510 22015 11.209447343949 14.895077972922 3 88 88 264 23232
1096	276123 559 5170 23551 10.651295920599 14.898605240958 19 88 88 1672 147136
1097	276682 194 0 22122 0 14.895227972922 8 0 3 17 43
1098	276876 1263 0 23550 0 14.898605240958 45 0 3 80 194
1099	278139 344 7513 22122 11.209447343949 14.895227972922 12 0 2 12 18
1100	278483 11 0 0 0 0 1 0 0 0 0
1101	278494 3064 0 23550 0 14.898605240958 110 0 3 48 132
1109	281558 22 0 0 0 0 2 0 2 2 4
1110	281580 11 0 0 0 0 1 1 1 1 1
1112	281591 11 0 0 0 0 1 0 0 0 0
1113	281602 44 0 0 0 0 4 0 0 0 0
1121	281646 22 0 0 0 0 2 0 2 2 4
1122	281668 11 0 0 0 0 1 1 1 1 1
1124	281679 11 0 0 0 0 1 0 0 0 0
1125	281690 44 0 0 0 0 4 0 0 0 0
1133	281734 22 0 0 0 0 2 0 2 2 4
1134	281756 11 0 0 0 0 1 1 1 1 1
1136	281767 11 0 0 0 0 1 0 0 0 0
1137	281778 44 0 0 0 0 4 0 0 0 0
1145	281822 22 0 0 0 0 2 0 2 2 4
1146	281844 11 0 0 0 0 1 1 1 1 1
1148	281855 11 0 0 0 0 1 0 0 0 0
1149	281866 44 0 0 0 0 4 0 0 0 0
1157	281910 22 0 0 0 0 2 0 2 2 4
1158	281932 11 0 0 0 0 1 1 1 1 1
1160	281943 11 0 0 0 0 1 0 0 0 0
1161	281954 44 0 0 0 0 4 0 0 0 0
1169	281998 22 0 0 0 0 2 0 2 2 4
1170	282020 11 0 0 0 0 1 1 1 1 1
1172	282031 11 0 0 0 0 1 0 0 0 0
1173	282042 44 0 0 0 0 4 0 0 0 0
1181	282086 22 0 0 0 0 2 0 2 2 4
1182	282108 11 0 0 0 0 1 1 1 1 1
1184	282119 11 0 0 0 0 1 0 0 0 0
1185	282130 44 0 0 0 0 4 0 0 0 0
1189	282174 562 5166 23815 10.651295709351 14.899365357544 19 88 88 1672 147136
1190	282736 88 8743 22736 11.21374408353 14.896357428766 3 88 88 264 23232
1191	282824 88 8741 22734 11.21374408353 14.896128540433 3 88 88 264 23232
1192	282912 562 5166 23815 10.651295709351 14.899365357544 19 88 88 1672 147136
1193	283474 192 0 22840 0 14.896507428766 8 0 3 17 43
1194	283666 1267 0 23814 0 14.899365357544 45 0 3 80 194
1195	284933 340 8744 22840 11.21374408353 14.896507428766 12 0 2 12 18
1196	285273 11 0 0 0 0 1 0 0 0 0
1197	285284 3066 0 23814 0 14.899365357544 110 0 3 48 132
1201	288350 239 17638 27989 11.949749207498 14.91035802974 8 88 88 704 61952
1202	288589 60 17990 26735 11.954549625697 14.905157761944 2 88 88 176 15488
1203	288649 60 17988 26733 11.954549625697 14.905157761944 2 88 88 176 15488
1204	288709 239 17638 27989 11.949749207498 14.91035802974 8 88 88 704 61952
1205	288948 138 0 26840 0 14.905307761944 6 0 3 12 30
1206	289086 589 0 27988 0 14.91035802974 21 0 3 35 83
1207	289675 232 17991 26840 11.954549625697 14.905307761944 8 0 2 8 12
1208	289907 11 0 0 0 0 1 0 0 0 0
1209	289918 1548 0 27988 0 14.91035802974 56 0 3 32 88
1225	291466 22 0 0 0 0 2 0 2 2 4
1226	291488 66 0 27467 0 14.907313890574 3 1 2 4 6
1228	291554 11 0 0 0 0 1 0 0 0 0
1229	291565 154 0 27467 0 14.907313890574 8 0 0 0 0
