version 2
run AODVUU-0-20161203-16:04:54-19075
attr configname AODVUU
attr datetime 20161203-16:04:54
attr experiment AODVUU
attr inifile omnetpp.ini
attr iterationvars ""
attr iterationvars2 $repetition=0
attr measurement ""
attr network ncorp_inet.simulations.codeorexperimentos.Net80211_aodv
attr processid 19075
attr repetition 0
attr replication #0
attr resultdir results
attr runnumber 0
attr seedset 0
param **.arpType "\"GlobalARP\""
param **.broadcastDelay uniform(0s,0.005s)
param **.constraintAreaMaxX 4000m
param **.constraintAreaMaxY 4000m
param **.constraintAreaMaxZ 0m
param **.constraintAreaMinX 0m
param **.constraintAreaMinY 0m
param **.constraintAreaMinZ 0m
param **.drawCoverage false
param **.fixhost.mobility.initialX 999m
param **.fixhost.mobility.initialY 999m
param **.fixhost.numUdpApps 1
param **.fixhost.udpApp[*].typename "\"UDPSink\""
param **.fixhost.udpApp[0].localPort 1234
param **.host*.mobilityType "\"StationaryMobility\""
param **.host[*].udpApp[*].typename "\"UDPBasicBurst\""
param **.host[0].numUdpApps 1
param **.ip.procDelay 10us
param **.llfeedback true
param **.mobility.initFromDisplayString false
param **.numTcpApps 0
param **.routingProtocol "\"AODVUU\""
param **.udpApp[0].burstDuration 1s
param **.udpApp[0].chooseDestAddrMode "\"perBurst\""
param **.udpApp[0].delayLimit 20s
param **.udpApp[0].destAddrRNG 0
param **.udpApp[0].destAddresses "\"fixhost\""
param **.udpApp[0].destPort 1234
param **.udpApp[0].localPort 1234
param **.udpApp[0].messageLength 1500B
param **.udpApp[0].sendInterval 0.003125s
param **.udpApp[0].sleepDuration 0s
param **.udpApp[0].startTime 10s
param **.udpApp[0].stopTime 10.1s
param **.wlan*.bitrate 54Mbps
param **.wlan*.mac.EDCA false
param **.wlan*.mac.basicBitrate 6Mbps
param **.wlan*.mac.cwMinBroadcast 31
param **.wlan*.mac.cwMinData 31
param **.wlan*.mac.maxQueueSize 14
param **.wlan*.mac.retryLimit 7
param **.wlan*.mac.rtsThresholdBytes 3000B
param **.wlan*.mgmt.frameCapacity 10
param **.wlan*.opMode "\"g\""
param **.wlan*.radio.receiver.energyDetection -90dBm
param **.wlan*.radio.receiver.errorModel.berTableFile "\"per_table_80211g_Trivellato.dat\""
param **.wlan*.radio.receiver.errorModelType "\"Ieee80211BerTableErrorModel\""
param **.wlan*.radio.receiver.sensitivity -90dBm
param **.wlan*.radio.transmitter.power 2.0mW
param **.wlan*.typename "\"Ieee80211Nic\""
param *.numHosts 100
param *.radioMedium.mediumLimitCache.maxTransmissionPower 2.0mW

vector 21  Net80211_aodv.host[0].wlan[0].mac.ctn[0]  state:vector  ETV
attr interpolationmode  none
attr source  stateChanged
attr title  "contention state, vector"
vector 33  Net80211_aodv.host[1].wlan[0].mac.ctn[0]  state:vector  ETV
attr interpolationmode  none
attr source  stateChanged
attr title  "contention state, vector"
vector 45  Net80211_aodv.host[2].wlan[0].mac.ctn[0]  state:vector  ETV
attr interpolationmode  none
attr source  stateChanged
attr title  "contention state, vector"
vector 57  Net80211_aodv.host[3].wlan[0].mac.ctn[0]  state:vector  ETV
attr interpolationmode  none
attr source  stateChanged
attr title  "contention state, vector"
vector 69  Net80211_aodv.host[4].wlan[0].mac.ctn[0]  state:vector  ETV
attr interpolationmode  none
attr source  stateChanged
attr title  "contention state, vector"
vector 81  Net80211_aodv.host[5].wlan[0].mac.ctn[0]  state:vector  ETV
attr interpolationmode  none
attr source  stateChanged
attr title  "contention state, vector"
vector 93  Net80211_aodv.host[6].wlan[0].mac.ctn[0]  state:vector  ETV
attr interpolationmode  none
attr source  stateChanged
attr title  "contention state, vector"
vector 105  Net80211_aodv.host[7].wlan[0].mac.ctn[0]  state:vector  ETV
attr interpolationmode  none
attr source  stateChanged
attr title  "contention state, vector"
vector 117  Net80211_aodv.host[8].wlan[0].mac.ctn[0]  state:vector  ETV
attr interpolationmode  none
attr source  stateChanged
attr title  "contention state, vector"
vector 129  Net80211_aodv.host[9].wlan[0].mac.ctn[0]  state:vector  ETV
attr interpolationmode  none
attr source  stateChanged
attr title  "contention state, vector"
vector 141  Net80211_aodv.host[10].wlan[0].mac.ctn[0]  state:vector  ETV
attr interpolationmode  none
attr source  stateChanged
attr title  "contention state, vector"
vector 153  Net80211_aodv.host[11].wlan[0].mac.ctn[0]  state:vector  ETV
attr interpolationmode  none
attr source  stateChanged
attr title  "contention state, vector"
vector 165  Net80211_aodv.host[12].wlan[0].mac.ctn[0]  state:vector  ETV
attr interpolationmode  none
attr source  stateChanged
attr title  "contention state, vector"
vector 177  Net80211_aodv.host[13].wlan[0].mac.ctn[0]  state:vector  ETV
attr interpolationmode  none
attr source  stateChanged
attr title  "contention state, vector"
vector 189  Net80211_aodv.host[14].wlan[0].mac.ctn[0]  state:vector  ETV
attr interpolationmode  none
attr source  stateChanged
attr title  "contention state, vector"
vector 201  Net80211_aodv.host[15].wlan[0].mac.ctn[0]  state:vector  ETV
attr interpolationmode  none
attr source  stateChanged
attr title  "contention state, vector"
vector 213  Net80211_aodv.host[16].wlan[0].mac.ctn[0]  state:vector  ETV
attr interpolationmode  none
attr source  stateChanged
attr title  "contention state, vector"
vector 225  Net80211_aodv.host[17].wlan[0].mac.ctn[0]  state:vector  ETV
attr interpolationmode  none
attr source  stateChanged
attr title  "contention state, vector"
vector 237  Net80211_aodv.host[18].wlan[0].mac.ctn[0]  state:vector  ETV
attr interpolationmode  none
attr source  stateChanged
attr title  "contention state, vector"
vector 249  Net80211_aodv.host[19].wlan[0].mac.ctn[0]  state:vector  ETV
attr interpolationmode  none
attr source  stateChanged
attr title  "contention state, vector"
vector 261  Net80211_aodv.host[20].wlan[0].mac.ctn[0]  state:vector  ETV
attr interpolationmode  none
attr source  stateChanged
attr title  "contention state, vector"
vector 273  Net80211_aodv.host[21].wlan[0].mac.ctn[0]  state:vector  ETV
attr interpolationmode  none
attr source  stateChanged
attr title  "contention state, vector"
vector 285  Net80211_aodv.host[22].wlan[0].mac.ctn[0]  state:vector  ETV
attr interpolationmode  none
attr source  stateChanged
attr title  "contention state, vector"
vector 297  Net80211_aodv.host[23].wlan[0].mac.ctn[0]  state:vector  ETV
attr interpolationmode  none
attr source  stateChanged
attr title  "contention state, vector"
vector 309  Net80211_aodv.host[24].wlan[0].mac.ctn[0]  state:vector  ETV
attr interpolationmode  none
attr source  stateChanged
attr title  "contention state, vector"
vector 321  Net80211_aodv.host[25].wlan[0].mac.ctn[0]  state:vector  ETV
attr interpolationmode  none
attr source  stateChanged
attr title  "contention state, vector"
vector 333  Net80211_aodv.host[26].wlan[0].mac.ctn[0]  state:vector  ETV
attr interpolationmode  none
attr source  stateChanged
attr title  "contention state, vector"
vector 345  Net80211_aodv.host[27].wlan[0].mac.ctn[0]  state:vector  ETV
attr interpolationmode  none
attr source  stateChanged
attr title  "contention state, vector"
vector 357  Net80211_aodv.host[28].wlan[0].mac.ctn[0]  state:vector  ETV
attr interpolationmode  none
attr source  stateChanged
attr title  "contention state, vector"
vector 369  Net80211_aodv.host[29].wlan[0].mac.ctn[0]  state:vector  ETV
attr interpolationmode  none
attr source  stateChanged
attr title  "contention state, vector"
vector 381  Net80211_aodv.host[30].wlan[0].mac.ctn[0]  state:vector  ETV
attr interpolationmode  none
attr source  stateChanged
attr title  "contention state, vector"
vector 393  Net80211_aodv.host[31].wlan[0].mac.ctn[0]  state:vector  ETV
attr interpolationmode  none
attr source  stateChanged
attr title  "contention state, vector"
vector 405  Net80211_aodv.host[32].wlan[0].mac.ctn[0]  state:vector  ETV
attr interpolationmode  none
attr source  stateChanged
attr title  "contention state, vector"
vector 417  Net80211_aodv.host[33].wlan[0].mac.ctn[0]  state:vector  ETV
attr interpolationmode  none
attr source  stateChanged
attr title  "contention state, vector"
vector 429  Net80211_aodv.host[34].wlan[0].mac.ctn[0]  state:vector  ETV
attr interpolationmode  none
attr source  stateChanged
attr title  "contention state, vector"
vector 441  Net80211_aodv.host[35].wlan[0].mac.ctn[0]  state:vector  ETV
attr interpolationmode  none
attr source  stateChanged
attr title  "contention state, vector"
vector 453  Net80211_aodv.host[36].wlan[0].mac.ctn[0]  state:vector  ETV
attr interpolationmode  none
attr source  stateChanged
attr title  "contention state, vector"
vector 465  Net80211_aodv.host[37].wlan[0].mac.ctn[0]  state:vector  ETV
attr interpolationmode  none
attr source  stateChanged
attr title  "contention state, vector"
vector 477  Net80211_aodv.host[38].wlan[0].mac.ctn[0]  state:vector  ETV
attr interpolationmode  none
attr source  stateChanged
attr title  "contention state, vector"
vector 489  Net80211_aodv.host[39].wlan[0].mac.ctn[0]  state:vector  ETV
attr interpolationmode  none
attr source  stateChanged
attr title  "contention state, vector"
vector 501  Net80211_aodv.host[40].wlan[0].mac.ctn[0]  state:vector  ETV
attr interpolationmode  none
attr source  stateChanged
attr title  "contention state, vector"
vector 513  Net80211_aodv.host[41].wlan[0].mac.ctn[0]  state:vector  ETV
attr interpolationmode  none
attr source  stateChanged
attr title  "contention state, vector"
vector 525  Net80211_aodv.host[42].wlan[0].mac.ctn[0]  state:vector  ETV
attr interpolationmode  none
attr source  stateChanged
attr title  "contention state, vector"
vector 537  Net80211_aodv.host[43].wlan[0].mac.ctn[0]  state:vector  ETV
attr interpolationmode  none
attr source  stateChanged
attr title  "contention state, vector"
vector 549  Net80211_aodv.host[44].wlan[0].mac.ctn[0]  state:vector  ETV
attr interpolationmode  none
attr source  stateChanged
attr title  "contention state, vector"
vector 561  Net80211_aodv.host[45].wlan[0].mac.ctn[0]  state:vector  ETV
attr interpolationmode  none
attr source  stateChanged
attr title  "contention state, vector"
vector 573  Net80211_aodv.host[46].wlan[0].mac.ctn[0]  state:vector  ETV
attr interpolationmode  none
attr source  stateChanged
attr title  "contention state, vector"
vector 585  Net80211_aodv.host[47].wlan[0].mac.ctn[0]  state:vector  ETV
attr interpolationmode  none
attr source  stateChanged
attr title  "contention state, vector"
vector 597  Net80211_aodv.host[48].wlan[0].mac.ctn[0]  state:vector  ETV
attr interpolationmode  none
attr source  stateChanged
attr title  "contention state, vector"
vector 609  Net80211_aodv.host[49].wlan[0].mac.ctn[0]  state:vector  ETV
attr interpolationmode  none
attr source  stateChanged
attr title  "contention state, vector"
vector 621  Net80211_aodv.host[50].wlan[0].mac.ctn[0]  state:vector  ETV
attr interpolationmode  none
attr source  stateChanged
attr title  "contention state, vector"
vector 633  Net80211_aodv.host[51].wlan[0].mac.ctn[0]  state:vector  ETV
attr interpolationmode  none
attr source  stateChanged
attr title  "contention state, vector"
vector 645  Net80211_aodv.host[52].wlan[0].mac.ctn[0]  state:vector  ETV
attr interpolationmode  none
attr source  stateChanged
attr title  "contention state, vector"
vector 657  Net80211_aodv.host[53].wlan[0].mac.ctn[0]  state:vector  ETV
attr interpolationmode  none
attr source  stateChanged
attr title  "contention state, vector"
vector 669  Net80211_aodv.host[54].wlan[0].mac.ctn[0]  state:vector  ETV
attr interpolationmode  none
attr source  stateChanged
attr title  "contention state, vector"
vector 681  Net80211_aodv.host[55].wlan[0].mac.ctn[0]  state:vector  ETV
attr interpolationmode  none
attr source  stateChanged
attr title  "contention state, vector"
vector 693  Net80211_aodv.host[56].wlan[0].mac.ctn[0]  state:vector  ETV
attr interpolationmode  none
attr source  stateChanged
attr title  "contention state, vector"
vector 705  Net80211_aodv.host[57].wlan[0].mac.ctn[0]  state:vector  ETV
attr interpolationmode  none
attr source  stateChanged
attr title  "contention state, vector"
vector 717  Net80211_aodv.host[58].wlan[0].mac.ctn[0]  state:vector  ETV
attr interpolationmode  none
attr source  stateChanged
attr title  "contention state, vector"
vector 729  Net80211_aodv.host[59].wlan[0].mac.ctn[0]  state:vector  ETV
attr interpolationmode  none
attr source  stateChanged
attr title  "contention state, vector"
vector 741  Net80211_aodv.host[60].wlan[0].mac.ctn[0]  state:vector  ETV
attr interpolationmode  none
attr source  stateChanged
attr title  "contention state, vector"
vector 753  Net80211_aodv.host[61].wlan[0].mac.ctn[0]  state:vector  ETV
attr interpolationmode  none
attr source  stateChanged
attr title  "contention state, vector"
vector 765  Net80211_aodv.host[62].wlan[0].mac.ctn[0]  state:vector  ETV
attr interpolationmode  none
attr source  stateChanged
attr title  "contention state, vector"
vector 777  Net80211_aodv.host[63].wlan[0].mac.ctn[0]  state:vector  ETV
attr interpolationmode  none
attr source  stateChanged
attr title  "contention state, vector"
vector 789  Net80211_aodv.host[64].wlan[0].mac.ctn[0]  state:vector  ETV
attr interpolationmode  none
attr source  stateChanged
attr title  "contention state, vector"
vector 801  Net80211_aodv.host[65].wlan[0].mac.ctn[0]  state:vector  ETV
attr interpolationmode  none
attr source  stateChanged
attr title  "contention state, vector"
vector 813  Net80211_aodv.host[66].wlan[0].mac.ctn[0]  state:vector  ETV
attr interpolationmode  none
attr source  stateChanged
attr title  "contention state, vector"
vector 825  Net80211_aodv.host[67].wlan[0].mac.ctn[0]  state:vector  ETV
attr interpolationmode  none
attr source  stateChanged
attr title  "contention state, vector"
vector 837  Net80211_aodv.host[68].wlan[0].mac.ctn[0]  state:vector  ETV
attr interpolationmode  none
attr source  stateChanged
attr title  "contention state, vector"
vector 849  Net80211_aodv.host[69].wlan[0].mac.ctn[0]  state:vector  ETV
attr interpolationmode  none
attr source  stateChanged
attr title  "contention state, vector"
vector 861  Net80211_aodv.host[70].wlan[0].mac.ctn[0]  state:vector  ETV
attr interpolationmode  none
attr source  stateChanged
attr title  "contention state, vector"
vector 873  Net80211_aodv.host[71].wlan[0].mac.ctn[0]  state:vector  ETV
attr interpolationmode  none
attr source  stateChanged
attr title  "contention state, vector"
vector 885  Net80211_aodv.host[72].wlan[0].mac.ctn[0]  state:vector  ETV
attr interpolationmode  none
attr source  stateChanged
attr title  "contention state, vector"
vector 897  Net80211_aodv.host[73].wlan[0].mac.ctn[0]  state:vector  ETV
attr interpolationmode  none
attr source  stateChanged
attr title  "contention state, vector"
vector 909  Net80211_aodv.host[74].wlan[0].mac.ctn[0]  state:vector  ETV
attr interpolationmode  none
attr source  stateChanged
attr title  "contention state, vector"
vector 921  Net80211_aodv.host[75].wlan[0].mac.ctn[0]  state:vector  ETV
attr interpolationmode  none
attr source  stateChanged
attr title  "contention state, vector"
vector 933  Net80211_aodv.host[76].wlan[0].mac.ctn[0]  state:vector  ETV
attr interpolationmode  none
attr source  stateChanged
attr title  "contention state, vector"
vector 945  Net80211_aodv.host[77].wlan[0].mac.ctn[0]  state:vector  ETV
attr interpolationmode  none
attr source  stateChanged
attr title  "contention state, vector"
vector 957  Net80211_aodv.host[78].wlan[0].mac.ctn[0]  state:vector  ETV
attr interpolationmode  none
attr source  stateChanged
attr title  "contention state, vector"
vector 969  Net80211_aodv.host[79].wlan[0].mac.ctn[0]  state:vector  ETV
attr interpolationmode  none
attr source  stateChanged
attr title  "contention state, vector"
vector 981  Net80211_aodv.host[80].wlan[0].mac.ctn[0]  state:vector  ETV
attr interpolationmode  none
attr source  stateChanged
attr title  "contention state, vector"
vector 993  Net80211_aodv.host[81].wlan[0].mac.ctn[0]  state:vector  ETV
attr interpolationmode  none
attr source  stateChanged
attr title  "contention state, vector"
vector 1005  Net80211_aodv.host[82].wlan[0].mac.ctn[0]  state:vector  ETV
attr interpolationmode  none
attr source  stateChanged
attr title  "contention state, vector"
vector 1017  Net80211_aodv.host[83].wlan[0].mac.ctn[0]  state:vector  ETV
attr interpolationmode  none
attr source  stateChanged
attr title  "contention state, vector"
vector 1029  Net80211_aodv.host[84].wlan[0].mac.ctn[0]  state:vector  ETV
attr interpolationmode  none
attr source  stateChanged
attr title  "contention state, vector"
vector 1041  Net80211_aodv.host[85].wlan[0].mac.ctn[0]  state:vector  ETV
attr interpolationmode  none
attr source  stateChanged
attr title  "contention state, vector"
vector 1053  Net80211_aodv.host[86].wlan[0].mac.ctn[0]  state:vector  ETV
attr interpolationmode  none
attr source  stateChanged
attr title  "contention state, vector"
vector 1065  Net80211_aodv.host[87].wlan[0].mac.ctn[0]  state:vector  ETV
attr interpolationmode  none
attr source  stateChanged
attr title  "contention state, vector"
vector 1077  Net80211_aodv.host[88].wlan[0].mac.ctn[0]  state:vector  ETV
attr interpolationmode  none
attr source  stateChanged
attr title  "contention state, vector"
vector 1089  Net80211_aodv.host[89].wlan[0].mac.ctn[0]  state:vector  ETV
attr interpolationmode  none
attr source  stateChanged
attr title  "contention state, vector"
vector 1101  Net80211_aodv.host[90].wlan[0].mac.ctn[0]  state:vector  ETV
attr interpolationmode  none
attr source  stateChanged
attr title  "contention state, vector"
vector 1113  Net80211_aodv.host[91].wlan[0].mac.ctn[0]  state:vector  ETV
attr interpolationmode  none
attr source  stateChanged
attr title  "contention state, vector"
vector 1125  Net80211_aodv.host[92].wlan[0].mac.ctn[0]  state:vector  ETV
attr interpolationmode  none
attr source  stateChanged
attr title  "contention state, vector"
vector 1137  Net80211_aodv.host[93].wlan[0].mac.ctn[0]  state:vector  ETV
attr interpolationmode  none
attr source  stateChanged
attr title  "contention state, vector"
vector 1149  Net80211_aodv.host[94].wlan[0].mac.ctn[0]  state:vector  ETV
attr interpolationmode  none
attr source  stateChanged
attr title  "contention state, vector"
vector 1161  Net80211_aodv.host[95].wlan[0].mac.ctn[0]  state:vector  ETV
attr interpolationmode  none
attr source  stateChanged
attr title  "contention state, vector"
vector 1173  Net80211_aodv.host[96].wlan[0].mac.ctn[0]  state:vector  ETV
attr interpolationmode  none
attr source  stateChanged
attr title  "contention state, vector"
vector 1185  Net80211_aodv.host[97].wlan[0].mac.ctn[0]  state:vector  ETV
attr interpolationmode  none
attr source  stateChanged
attr title  "contention state, vector"
vector 1197  Net80211_aodv.host[98].wlan[0].mac.ctn[0]  state:vector  ETV
attr interpolationmode  none
attr source  stateChanged
attr title  "contention state, vector"
vector 1209  Net80211_aodv.host[99].wlan[0].mac.ctn[0]  state:vector  ETV
attr interpolationmode  none
attr source  stateChanged
attr title  "contention state, vector"
vector 1229  Net80211_aodv.fixhost.wlan[0].mac.ctn[0]  state:vector  ETV
attr interpolationmode  none
attr source  stateChanged
attr title  "contention state, vector"
vector 17  Net80211_aodv.host[0].wlan[0].radio  radioMode:vector  ETV
attr interpolationmode  sample-hold
attr source  radioModeChanged
attr title  "Radio mode, vector"
vector 20  Net80211_aodv.host[0].wlan[0].radio  radioChannel:vector  ETV
attr interpolationmode  sample-hold
attr source  radioChannelChanged
attr title  "Radio channel, vector"
vector 29  Net80211_aodv.host[1].wlan[0].radio  radioMode:vector  ETV
attr interpolationmode  sample-hold
attr source  radioModeChanged
attr title  "Radio mode, vector"
vector 32  Net80211_aodv.host[1].wlan[0].radio  radioChannel:vector  ETV
attr interpolationmode  sample-hold
attr source  radioChannelChanged
attr title  "Radio channel, vector"
vector 41  Net80211_aodv.host[2].wlan[0].radio  radioMode:vector  ETV
attr interpolationmode  sample-hold
attr source  radioModeChanged
attr title  "Radio mode, vector"
vector 44  Net80211_aodv.host[2].wlan[0].radio  radioChannel:vector  ETV
attr interpolationmode  sample-hold
attr source  radioChannelChanged
attr title  "Radio channel, vector"
vector 53  Net80211_aodv.host[3].wlan[0].radio  radioMode:vector  ETV
attr interpolationmode  sample-hold
attr source  radioModeChanged
attr title  "Radio mode, vector"
vector 56  Net80211_aodv.host[3].wlan[0].radio  radioChannel:vector  ETV
attr interpolationmode  sample-hold
attr source  radioChannelChanged
attr title  "Radio channel, vector"
vector 65  Net80211_aodv.host[4].wlan[0].radio  radioMode:vector  ETV
attr interpolationmode  sample-hold
attr source  radioModeChanged
attr title  "Radio mode, vector"
vector 68  Net80211_aodv.host[4].wlan[0].radio  radioChannel:vector  ETV
attr interpolationmode  sample-hold
attr source  radioChannelChanged
attr title  "Radio channel, vector"
vector 77  Net80211_aodv.host[5].wlan[0].radio  radioMode:vector  ETV
attr interpolationmode  sample-hold
attr source  radioModeChanged
attr title  "Radio mode, vector"
vector 80  Net80211_aodv.host[5].wlan[0].radio  radioChannel:vector  ETV
attr interpolationmode  sample-hold
attr source  radioChannelChanged
attr title  "Radio channel, vector"
vector 89  Net80211_aodv.host[6].wlan[0].radio  radioMode:vector  ETV
attr interpolationmode  sample-hold
attr source  radioModeChanged
attr title  "Radio mode, vector"
vector 92  Net80211_aodv.host[6].wlan[0].radio  radioChannel:vector  ETV
attr interpolationmode  sample-hold
attr source  radioChannelChanged
attr title  "Radio channel, vector"
vector 101  Net80211_aodv.host[7].wlan[0].radio  radioMode:vector  ETV
attr interpolationmode  sample-hold
attr source  radioModeChanged
attr title  "Radio mode, vector"
vector 104  Net80211_aodv.host[7].wlan[0].radio  radioChannel:vector  ETV
attr interpolationmode  sample-hold
attr source  radioChannelChanged
attr title  "Radio channel, vector"
vector 113  Net80211_aodv.host[8].wlan[0].radio  radioMode:vector  ETV
attr interpolationmode  sample-hold
attr source  radioModeChanged
attr title  "Radio mode, vector"
vector 116  Net80211_aodv.host[8].wlan[0].radio  radioChannel:vector  ETV
attr interpolationmode  sample-hold
attr source  radioChannelChanged
attr title  "Radio channel, vector"
vector 125  Net80211_aodv.host[9].wlan[0].radio  radioMode:vector  ETV
attr interpolationmode  sample-hold
attr source  radioModeChanged
attr title  "Radio mode, vector"
vector 128  Net80211_aodv.host[9].wlan[0].radio  radioChannel:vector  ETV
attr interpolationmode  sample-hold
attr source  radioChannelChanged
attr title  "Radio channel, vector"
vector 137  Net80211_aodv.host[10].wlan[0].radio  radioMode:vector  ETV
attr interpolationmode  sample-hold
attr source  radioModeChanged
attr title  "Radio mode, vector"
vector 140  Net80211_aodv.host[10].wlan[0].radio  radioChannel:vector  ETV
attr interpolationmode  sample-hold
attr source  radioChannelChanged
attr title  "Radio channel, vector"
vector 149  Net80211_aodv.host[11].wlan[0].radio  radioMode:vector  ETV
attr interpolationmode  sample-hold
attr source  radioModeChanged
attr title  "Radio mode, vector"
vector 152  Net80211_aodv.host[11].wlan[0].radio  radioChannel:vector  ETV
attr interpolationmode  sample-hold
attr source  radioChannelChanged
attr title  "Radio channel, vector"
vector 161  Net80211_aodv.host[12].wlan[0].radio  radioMode:vector  ETV
attr interpolationmode  sample-hold
attr source  radioModeChanged
attr title  "Radio mode, vector"
vector 164  Net80211_aodv.host[12].wlan[0].radio  radioChannel:vector  ETV
attr interpolationmode  sample-hold
attr source  radioChannelChanged
attr title  "Radio channel, vector"
vector 173  Net80211_aodv.host[13].wlan[0].radio  radioMode:vector  ETV
attr interpolationmode  sample-hold
attr source  radioModeChanged
attr title  "Radio mode, vector"
vector 176  Net80211_aodv.host[13].wlan[0].radio  radioChannel:vector  ETV
attr interpolationmode  sample-hold
attr source  radioChannelChanged
attr title  "Radio channel, vector"
vector 185  Net80211_aodv.host[14].wlan[0].radio  radioMode:vector  ETV
attr interpolationmode  sample-hold
attr source  radioModeChanged
attr title  "Radio mode, vector"
vector 188  Net80211_aodv.host[14].wlan[0].radio  radioChannel:vector  ETV
attr interpolationmode  sample-hold
attr source  radioChannelChanged
attr title  "Radio channel, vector"
vector 197  Net80211_aodv.host[15].wlan[0].radio  radioMode:vector  ETV
attr interpolationmode  sample-hold
attr source  radioModeChanged
attr title  "Radio mode, vector"
vector 200  Net80211_aodv.host[15].wlan[0].radio  radioChannel:vector  ETV
attr interpolationmode  sample-hold
attr source  radioChannelChanged
attr title  "Radio channel, vector"
vector 209  Net80211_aodv.host[16].wlan[0].radio  radioMode:vector  ETV
attr interpolationmode  sample-hold
attr source  radioModeChanged
attr title  "Radio mode, vector"
vector 212  Net80211_aodv.host[16].wlan[0].radio  radioChannel:vector  ETV
attr interpolationmode  sample-hold
attr source  radioChannelChanged
attr title  "Radio channel, vector"
vector 221  Net80211_aodv.host[17].wlan[0].radio  radioMode:vector  ETV
attr interpolationmode  sample-hold
attr source  radioModeChanged
attr title  "Radio mode, vector"
vector 224  Net80211_aodv.host[17].wlan[0].radio  radioChannel:vector  ETV
attr interpolationmode  sample-hold
attr source  radioChannelChanged
attr title  "Radio channel, vector"
vector 233  Net80211_aodv.host[18].wlan[0].radio  radioMode:vector  ETV
attr interpolationmode  sample-hold
attr source  radioModeChanged
attr title  "Radio mode, vector"
vector 236  Net80211_aodv.host[18].wlan[0].radio  radioChannel:vector  ETV
attr interpolationmode  sample-hold
attr source  radioChannelChanged
attr title  "Radio channel, vector"
vector 245  Net80211_aodv.host[19].wlan[0].radio  radioMode:vector  ETV
attr interpolationmode  sample-hold
attr source  radioModeChanged
attr title  "Radio mode, vector"
vector 248  Net80211_aodv.host[19].wlan[0].radio  radioChannel:vector  ETV
attr interpolationmode  sample-hold
attr source  radioChannelChanged
attr title  "Radio channel, vector"
vector 257  Net80211_aodv.host[20].wlan[0].radio  radioMode:vector  ETV
attr interpolationmode  sample-hold
attr source  radioModeChanged
attr title  "Radio mode, vector"
vector 260  Net80211_aodv.host[20].wlan[0].radio  radioChannel:vector  ETV
attr interpolationmode  sample-hold
attr source  radioChannelChanged
attr title  "Radio channel, vector"
vector 269  Net80211_aodv.host[21].wlan[0].radio  radioMode:vector  ETV
attr interpolationmode  sample-hold
attr source  radioModeChanged
attr title  "Radio mode, vector"
vector 272  Net80211_aodv.host[21].wlan[0].radio  radioChannel:vector  ETV
attr interpolationmode  sample-hold
attr source  radioChannelChanged
attr title  "Radio channel, vector"
vector 281  Net80211_aodv.host[22].wlan[0].radio  radioMode:vector  ETV
attr interpolationmode  sample-hold
attr source  radioModeChanged
attr title  "Radio mode, vector"
vector 284  Net80211_aodv.host[22].wlan[0].radio  radioChannel:vector  ETV
attr interpolationmode  sample-hold
attr source  radioChannelChanged
attr title  "Radio channel, vector"
vector 293  Net80211_aodv.host[23].wlan[0].radio  radioMode:vector  ETV
attr interpolationmode  sample-hold
attr source  radioModeChanged
attr title  "Radio mode, vector"
vector 296  Net80211_aodv.host[23].wlan[0].radio  radioChannel:vector  ETV
attr interpolationmode  sample-hold
attr source  radioChannelChanged
attr title  "Radio channel, vector"
vector 305  Net80211_aodv.host[24].wlan[0].radio  radioMode:vector  ETV
attr interpolationmode  sample-hold
attr source  radioModeChanged
attr title  "Radio mode, vector"
vector 308  Net80211_aodv.host[24].wlan[0].radio  radioChannel:vector  ETV
attr interpolationmode  sample-hold
attr source  radioChannelChanged
attr title  "Radio channel, vector"
vector 317  Net80211_aodv.host[25].wlan[0].radio  radioMode:vector  ETV
attr interpolationmode  sample-hold
attr source  radioModeChanged
attr title  "Radio mode, vector"
vector 320  Net80211_aodv.host[25].wlan[0].radio  radioChannel:vector  ETV
attr interpolationmode  sample-hold
attr source  radioChannelChanged
attr title  "Radio channel, vector"
vector 329  Net80211_aodv.host[26].wlan[0].radio  radioMode:vector  ETV
attr interpolationmode  sample-hold
attr source  radioModeChanged
attr title  "Radio mode, vector"
vector 332  Net80211_aodv.host[26].wlan[0].radio  radioChannel:vector  ETV
attr interpolationmode  sample-hold
attr source  radioChannelChanged
attr title  "Radio channel, vector"
vector 341  Net80211_aodv.host[27].wlan[0].radio  radioMode:vector  ETV
attr interpolationmode  sample-hold
attr source  radioModeChanged
attr title  "Radio mode, vector"
vector 344  Net80211_aodv.host[27].wlan[0].radio  radioChannel:vector  ETV
attr interpolationmode  sample-hold
attr source  radioChannelChanged
attr title  "Radio channel, vector"
vector 353  Net80211_aodv.host[28].wlan[0].radio  radioMode:vector  ETV
attr interpolationmode  sample-hold
attr source  radioModeChanged
attr title  "Radio mode, vector"
vector 356  Net80211_aodv.host[28].wlan[0].radio  radioChannel:vector  ETV
attr interpolationmode  sample-hold
attr source  radioChannelChanged
attr title  "Radio channel, vector"
vector 365  Net80211_aodv.host[29].wlan[0].radio  radioMode:vector  ETV
attr interpolationmode  sample-hold
attr source  radioModeChanged
attr title  "Radio mode, vector"
vector 368  Net80211_aodv.host[29].wlan[0].radio  radioChannel:vector  ETV
attr interpolationmode  sample-hold
attr source  radioChannelChanged
attr title  "Radio channel, vector"
vector 377  Net80211_aodv.host[30].wlan[0].radio  radioMode:vector  ETV
attr interpolationmode  sample-hold
attr source  radioModeChanged
attr title  "Radio mode, vector"
vector 380  Net80211_aodv.host[30].wlan[0].radio  radioChannel:vector  ETV
attr interpolationmode  sample-hold
attr source  radioChannelChanged
attr title  "Radio channel, vector"
vector 389  Net80211_aodv.host[31].wlan[0].radio  radioMode:vector  ETV
attr interpolationmode  sample-hold
attr source  radioModeChanged
attr title  "Radio mode, vector"
vector 392  Net80211_aodv.host[31].wlan[0].radio  radioChannel:vector  ETV
attr interpolationmode  sample-hold
attr source  radioChannelChanged
attr title  "Radio channel, vector"
vector 401  Net80211_aodv.host[32].wlan[0].radio  radioMode:vector  ETV
attr interpolationmode  sample-hold
attr source  radioModeChanged
attr title  "Radio mode, vector"
vector 404  Net80211_aodv.host[32].wlan[0].radio  radioChannel:vector  ETV
attr interpolationmode  sample-hold
attr source  radioChannelChanged
attr title  "Radio channel, vector"
vector 413  Net80211_aodv.host[33].wlan[0].radio  radioMode:vector  ETV
attr interpolationmode  sample-hold
attr source  radioModeChanged
attr title  "Radio mode, vector"
vector 416  Net80211_aodv.host[33].wlan[0].radio  radioChannel:vector  ETV
attr interpolationmode  sample-hold
attr source  radioChannelChanged
attr title  "Radio channel, vector"
vector 425  Net80211_aodv.host[34].wlan[0].radio  radioMode:vector  ETV
attr interpolationmode  sample-hold
attr source  radioModeChanged
attr title  "Radio mode, vector"
vector 428  Net80211_aodv.host[34].wlan[0].radio  radioChannel:vector  ETV
attr interpolationmode  sample-hold
attr source  radioChannelChanged
attr title  "Radio channel, vector"
vector 437  Net80211_aodv.host[35].wlan[0].radio  radioMode:vector  ETV
attr interpolationmode  sample-hold
attr source  radioModeChanged
attr title  "Radio mode, vector"
vector 440  Net80211_aodv.host[35].wlan[0].radio  radioChannel:vector  ETV
attr interpolationmode  sample-hold
attr source  radioChannelChanged
attr title  "Radio channel, vector"
vector 449  Net80211_aodv.host[36].wlan[0].radio  radioMode:vector  ETV
attr interpolationmode  sample-hold
attr source  radioModeChanged
attr title  "Radio mode, vector"
vector 452  Net80211_aodv.host[36].wlan[0].radio  radioChannel:vector  ETV
attr interpolationmode  sample-hold
attr source  radioChannelChanged
attr title  "Radio channel, vector"
vector 461  Net80211_aodv.host[37].wlan[0].radio  radioMode:vector  ETV
attr interpolationmode  sample-hold
attr source  radioModeChanged
attr title  "Radio mode, vector"
vector 464  Net80211_aodv.host[37].wlan[0].radio  radioChannel:vector  ETV
attr interpolationmode  sample-hold
attr source  radioChannelChanged
attr title  "Radio channel, vector"
vector 473  Net80211_aodv.host[38].wlan[0].radio  radioMode:vector  ETV
attr interpolationmode  sample-hold
attr source  radioModeChanged
attr title  "Radio mode, vector"
vector 476  Net80211_aodv.host[38].wlan[0].radio  radioChannel:vector  ETV
attr interpolationmode  sample-hold
attr source  radioChannelChanged
attr title  "Radio channel, vector"
vector 485  Net80211_aodv.host[39].wlan[0].radio  radioMode:vector  ETV
attr interpolationmode  sample-hold
attr source  radioModeChanged
attr title  "Radio mode, vector"
vector 488  Net80211_aodv.host[39].wlan[0].radio  radioChannel:vector  ETV
attr interpolationmode  sample-hold
attr source  radioChannelChanged
attr title  "Radio channel, vector"
vector 497  Net80211_aodv.host[40].wlan[0].radio  radioMode:vector  ETV
attr interpolationmode  sample-hold
attr source  radioModeChanged
attr title  "Radio mode, vector"
vector 500  Net80211_aodv.host[40].wlan[0].radio  radioChannel:vector  ETV
attr interpolationmode  sample-hold
attr source  radioChannelChanged
attr title  "Radio channel, vector"
vector 509  Net80211_aodv.host[41].wlan[0].radio  radioMode:vector  ETV
attr interpolationmode  sample-hold
attr source  radioModeChanged
attr title  "Radio mode, vector"
vector 512  Net80211_aodv.host[41].wlan[0].radio  radioChannel:vector  ETV
attr interpolationmode  sample-hold
attr source  radioChannelChanged
attr title  "Radio channel, vector"
vector 521  Net80211_aodv.host[42].wlan[0].radio  radioMode:vector  ETV
attr interpolationmode  sample-hold
attr source  radioModeChanged
attr title  "Radio mode, vector"
vector 524  Net80211_aodv.host[42].wlan[0].radio  radioChannel:vector  ETV
attr interpolationmode  sample-hold
attr source  radioChannelChanged
attr title  "Radio channel, vector"
vector 533  Net80211_aodv.host[43].wlan[0].radio  radioMode:vector  ETV
attr interpolationmode  sample-hold
attr source  radioModeChanged
attr title  "Radio mode, vector"
vector 536  Net80211_aodv.host[43].wlan[0].radio  radioChannel:vector  ETV
attr interpolationmode  sample-hold
attr source  radioChannelChanged
attr title  "Radio channel, vector"
vector 545  Net80211_aodv.host[44].wlan[0].radio  radioMode:vector  ETV
attr interpolationmode  sample-hold
attr source  radioModeChanged
attr title  "Radio mode, vector"
vector 548  Net80211_aodv.host[44].wlan[0].radio  radioChannel:vector  ETV
attr interpolationmode  sample-hold
attr source  radioChannelChanged
attr title  "Radio channel, vector"
vector 557  Net80211_aodv.host[45].wlan[0].radio  radioMode:vector  ETV
attr interpolationmode  sample-hold
attr source  radioModeChanged
attr title  "Radio mode, vector"
vector 560  Net80211_aodv.host[45].wlan[0].radio  radioChannel:vector  ETV
attr interpolationmode  sample-hold
attr source  radioChannelChanged
attr title  "Radio channel, vector"
vector 569  Net80211_aodv.host[46].wlan[0].radio  radioMode:vector  ETV
attr interpolationmode  sample-hold
attr source  radioModeChanged
attr title  "Radio mode, vector"
vector 572  Net80211_aodv.host[46].wlan[0].radio  radioChannel:vector  ETV
attr interpolationmode  sample-hold
attr source  radioChannelChanged
attr title  "Radio channel, vector"
vector 581  Net80211_aodv.host[47].wlan[0].radio  radioMode:vector  ETV
attr interpolationmode  sample-hold
attr source  radioModeChanged
attr title  "Radio mode, vector"
vector 584  Net80211_aodv.host[47].wlan[0].radio  radioChannel:vector  ETV
attr interpolationmode  sample-hold
attr source  radioChannelChanged
attr title  "Radio channel, vector"
vector 593  Net80211_aodv.host[48].wlan[0].radio  radioMode:vector  ETV
attr interpolationmode  sample-hold
attr source  radioModeChanged
attr title  "Radio mode, vector"
vector 596  Net80211_aodv.host[48].wlan[0].radio  radioChannel:vector  ETV
attr interpolationmode  sample-hold
attr source  radioChannelChanged
attr title  "Radio channel, vector"
vector 605  Net80211_aodv.host[49].wlan[0].radio  radioMode:vector  ETV
attr interpolationmode  sample-hold
attr source  radioModeChanged
attr title  "Radio mode, vector"
vector 608  Net80211_aodv.host[49].wlan[0].radio  radioChannel:vector  ETV
attr interpolationmode  sample-hold
attr source  radioChannelChanged
attr title  "Radio channel, vector"
vector 617  Net80211_aodv.host[50].wlan[0].radio  radioMode:vector  ETV
attr interpolationmode  sample-hold
attr source  radioModeChanged
attr title  "Radio mode, vector"
vector 620  Net80211_aodv.host[50].wlan[0].radio  radioChannel:vector  ETV
attr interpolationmode  sample-hold
attr source  radioChannelChanged
attr title  "Radio channel, vector"
vector 629  Net80211_aodv.host[51].wlan[0].radio  radioMode:vector  ETV
attr interpolationmode  sample-hold
attr source  radioModeChanged
attr title  "Radio mode, vector"
vector 632  Net80211_aodv.host[51].wlan[0].radio  radioChannel:vector  ETV
attr interpolationmode  sample-hold
attr source  radioChannelChanged
attr title  "Radio channel, vector"
vector 641  Net80211_aodv.host[52].wlan[0].radio  radioMode:vector  ETV
attr interpolationmode  sample-hold
attr source  radioModeChanged
attr title  "Radio mode, vector"
vector 644  Net80211_aodv.host[52].wlan[0].radio  radioChannel:vector  ETV
attr interpolationmode  sample-hold
attr source  radioChannelChanged
attr title  "Radio channel, vector"
vector 653  Net80211_aodv.host[53].wlan[0].radio  radioMode:vector  ETV
attr interpolationmode  sample-hold
attr source  radioModeChanged
attr title  "Radio mode, vector"
vector 656  Net80211_aodv.host[53].wlan[0].radio  radioChannel:vector  ETV
attr interpolationmode  sample-hold
attr source  radioChannelChanged
attr title  "Radio channel, vector"
vector 665  Net80211_aodv.host[54].wlan[0].radio  radioMode:vector  ETV
attr interpolationmode  sample-hold
attr source  radioModeChanged
attr title  "Radio mode, vector"
vector 668  Net80211_aodv.host[54].wlan[0].radio  radioChannel:vector  ETV
attr interpolationmode  sample-hold
attr source  radioChannelChanged
attr title  "Radio channel, vector"
vector 677  Net80211_aodv.host[55].wlan[0].radio  radioMode:vector  ETV
attr interpolationmode  sample-hold
attr source  radioModeChanged
attr title  "Radio mode, vector"
vector 680  Net80211_aodv.host[55].wlan[0].radio  radioChannel:vector  ETV
attr interpolationmode  sample-hold
attr source  radioChannelChanged
attr title  "Radio channel, vector"
vector 689  Net80211_aodv.host[56].wlan[0].radio  radioMode:vector  ETV
attr interpolationmode  sample-hold
attr source  radioModeChanged
attr title  "Radio mode, vector"
vector 692  Net80211_aodv.host[56].wlan[0].radio  radioChannel:vector  ETV
attr interpolationmode  sample-hold
attr source  radioChannelChanged
attr title  "Radio channel, vector"
vector 701  Net80211_aodv.host[57].wlan[0].radio  radioMode:vector  ETV
attr interpolationmode  sample-hold
attr source  radioModeChanged
attr title  "Radio mode, vector"
vector 704  Net80211_aodv.host[57].wlan[0].radio  radioChannel:vector  ETV
attr interpolationmode  sample-hold
attr source  radioChannelChanged
attr title  "Radio channel, vector"
vector 713  Net80211_aodv.host[58].wlan[0].radio  radioMode:vector  ETV
attr interpolationmode  sample-hold
attr source  radioModeChanged
attr title  "Radio mode, vector"
vector 716  Net80211_aodv.host[58].wlan[0].radio  radioChannel:vector  ETV
attr interpolationmode  sample-hold
attr source  radioChannelChanged
attr title  "Radio channel, vector"
vector 725  Net80211_aodv.host[59].wlan[0].radio  radioMode:vector  ETV
attr interpolationmode  sample-hold
attr source  radioModeChanged
attr title  "Radio mode, vector"
vector 728  Net80211_aodv.host[59].wlan[0].radio  radioChannel:vector  ETV
attr interpolationmode  sample-hold
attr source  radioChannelChanged
attr title  "Radio channel, vector"
vector 737  Net80211_aodv.host[60].wlan[0].radio  radioMode:vector  ETV
attr interpolationmode  sample-hold
attr source  radioModeChanged
attr title  "Radio mode, vector"
vector 740  Net80211_aodv.host[60].wlan[0].radio  radioChannel:vector  ETV
attr interpolationmode  sample-hold
attr source  radioChannelChanged
attr title  "Radio channel, vector"
vector 749  Net80211_aodv.host[61].wlan[0].radio  radioMode:vector  ETV
attr interpolationmode  sample-hold
attr source  radioModeChanged
attr title  "Radio mode, vector"
vector 752  Net80211_aodv.host[61].wlan[0].radio  radioChannel:vector  ETV
attr interpolationmode  sample-hold
attr source  radioChannelChanged
attr title  "Radio channel, vector"
vector 761  Net80211_aodv.host[62].wlan[0].radio  radioMode:vector  ETV
attr interpolationmode  sample-hold
attr source  radioModeChanged
attr title  "Radio mode, vector"
vector 764  Net80211_aodv.host[62].wlan[0].radio  radioChannel:vector  ETV
attr interpolationmode  sample-hold
attr source  radioChannelChanged
attr title  "Radio channel, vector"
vector 773  Net80211_aodv.host[63].wlan[0].radio  radioMode:vector  ETV
attr interpolationmode  sample-hold
attr source  radioModeChanged
attr title  "Radio mode, vector"
vector 776  Net80211_aodv.host[63].wlan[0].radio  radioChannel:vector  ETV
attr interpolationmode  sample-hold
attr source  radioChannelChanged
attr title  "Radio channel, vector"
vector 785  Net80211_aodv.host[64].wlan[0].radio  radioMode:vector  ETV
attr interpolationmode  sample-hold
attr source  radioModeChanged
attr title  "Radio mode, vector"
vector 788  Net80211_aodv.host[64].wlan[0].radio  radioChannel:vector  ETV
attr interpolationmode  sample-hold
attr source  radioChannelChanged
attr title  "Radio channel, vector"
vector 797  Net80211_aodv.host[65].wlan[0].radio  radioMode:vector  ETV
attr interpolationmode  sample-hold
attr source  radioModeChanged
attr title  "Radio mode, vector"
vector 800  Net80211_aodv.host[65].wlan[0].radio  radioChannel:vector  ETV
attr interpolationmode  sample-hold
attr source  radioChannelChanged
attr title  "Radio channel, vector"
vector 809  Net80211_aodv.host[66].wlan[0].radio  radioMode:vector  ETV
attr interpolationmode  sample-hold
attr source  radioModeChanged
attr title  "Radio mode, vector"
vector 812  Net80211_aodv.host[66].wlan[0].radio  radioChannel:vector  ETV
attr interpolationmode  sample-hold
attr source  radioChannelChanged
attr title  "Radio channel, vector"
vector 821  Net80211_aodv.host[67].wlan[0].radio  radioMode:vector  ETV
attr interpolationmode  sample-hold
attr source  radioModeChanged
attr title  "Radio mode, vector"
vector 824  Net80211_aodv.host[67].wlan[0].radio  radioChannel:vector  ETV
attr interpolationmode  sample-hold
attr source  radioChannelChanged
attr title  "Radio channel, vector"
vector 833  Net80211_aodv.host[68].wlan[0].radio  radioMode:vector  ETV
attr interpolationmode  sample-hold
attr source  radioModeChanged
attr title  "Radio mode, vector"
vector 836  Net80211_aodv.host[68].wlan[0].radio  radioChannel:vector  ETV
attr interpolationmode  sample-hold
attr source  radioChannelChanged
attr title  "Radio channel, vector"
vector 845  Net80211_aodv.host[69].wlan[0].radio  radioMode:vector  ETV
attr interpolationmode  sample-hold
attr source  radioModeChanged
attr title  "Radio mode, vector"
vector 848  Net80211_aodv.host[69].wlan[0].radio  radioChannel:vector  ETV
attr interpolationmode  sample-hold
attr source  radioChannelChanged
attr title  "Radio channel, vector"
vector 857  Net80211_aodv.host[70].wlan[0].radio  radioMode:vector  ETV
attr interpolationmode  sample-hold
attr source  radioModeChanged
attr title  "Radio mode, vector"
vector 860  Net80211_aodv.host[70].wlan[0].radio  radioChannel:vector  ETV
attr interpolationmode  sample-hold
attr source  radioChannelChanged
attr title  "Radio channel, vector"
vector 869  Net80211_aodv.host[71].wlan[0].radio  radioMode:vector  ETV
attr interpolationmode  sample-hold
attr source  radioModeChanged
attr title  "Radio mode, vector"
vector 872  Net80211_aodv.host[71].wlan[0].radio  radioChannel:vector  ETV
attr interpolationmode  sample-hold
attr source  radioChannelChanged
attr title  "Radio channel, vector"
vector 881  Net80211_aodv.host[72].wlan[0].radio  radioMode:vector  ETV
attr interpolationmode  sample-hold
attr source  radioModeChanged
attr title  "Radio mode, vector"
vector 884  Net80211_aodv.host[72].wlan[0].radio  radioChannel:vector  ETV
attr interpolationmode  sample-hold
attr source  radioChannelChanged
attr title  "Radio channel, vector"
vector 893  Net80211_aodv.host[73].wlan[0].radio  radioMode:vector  ETV
attr interpolationmode  sample-hold
attr source  radioModeChanged
attr title  "Radio mode, vector"
vector 896  Net80211_aodv.host[73].wlan[0].radio  radioChannel:vector  ETV
attr interpolationmode  sample-hold
attr source  radioChannelChanged
attr title  "Radio channel, vector"
vector 905  Net80211_aodv.host[74].wlan[0].radio  radioMode:vector  ETV
attr interpolationmode  sample-hold
attr source  radioModeChanged
attr title  "Radio mode, vector"
vector 908  Net80211_aodv.host[74].wlan[0].radio  radioChannel:vector  ETV
attr interpolationmode  sample-hold
attr source  radioChannelChanged
attr title  "Radio channel, vector"
vector 917  Net80211_aodv.host[75].wlan[0].radio  radioMode:vector  ETV
attr interpolationmode  sample-hold
attr source  radioModeChanged
attr title  "Radio mode, vector"
vector 920  Net80211_aodv.host[75].wlan[0].radio  radioChannel:vector  ETV
attr interpolationmode  sample-hold
attr source  radioChannelChanged
attr title  "Radio channel, vector"
vector 929  Net80211_aodv.host[76].wlan[0].radio  radioMode:vector  ETV
attr interpolationmode  sample-hold
attr source  radioModeChanged
attr title  "Radio mode, vector"
vector 932  Net80211_aodv.host[76].wlan[0].radio  radioChannel:vector  ETV
attr interpolationmode  sample-hold
attr source  radioChannelChanged
attr title  "Radio channel, vector"
vector 941  Net80211_aodv.host[77].wlan[0].radio  radioMode:vector  ETV
attr interpolationmode  sample-hold
attr source  radioModeChanged
attr title  "Radio mode, vector"
vector 944  Net80211_aodv.host[77].wlan[0].radio  radioChannel:vector  ETV
attr interpolationmode  sample-hold
attr source  radioChannelChanged
attr title  "Radio channel, vector"
vector 953  Net80211_aodv.host[78].wlan[0].radio  radioMode:vector  ETV
attr interpolationmode  sample-hold
attr source  radioModeChanged
attr title  "Radio mode, vector"
vector 956  Net80211_aodv.host[78].wlan[0].radio  radioChannel:vector  ETV
attr interpolationmode  sample-hold
attr source  radioChannelChanged
attr title  "Radio channel, vector"
vector 965  Net80211_aodv.host[79].wlan[0].radio  radioMode:vector  ETV
attr interpolationmode  sample-hold
attr source  radioModeChanged
attr title  "Radio mode, vector"
vector 968  Net80211_aodv.host[79].wlan[0].radio  radioChannel:vector  ETV
attr interpolationmode  sample-hold
attr source  radioChannelChanged
attr title  "Radio channel, vector"
vector 977  Net80211_aodv.host[80].wlan[0].radio  radioMode:vector  ETV
attr interpolationmode  sample-hold
attr source  radioModeChanged
attr title  "Radio mode, vector"
vector 980  Net80211_aodv.host[80].wlan[0].radio  radioChannel:vector  ETV
attr interpolationmode  sample-hold
attr source  radioChannelChanged
attr title  "Radio channel, vector"
vector 989  Net80211_aodv.host[81].wlan[0].radio  radioMode:vector  ETV
attr interpolationmode  sample-hold
attr source  radioModeChanged
attr title  "Radio mode, vector"
vector 992  Net80211_aodv.host[81].wlan[0].radio  radioChannel:vector  ETV
attr interpolationmode  sample-hold
attr source  radioChannelChanged
attr title  "Radio channel, vector"
vector 1001  Net80211_aodv.host[82].wlan[0].radio  radioMode:vector  ETV
attr interpolationmode  sample-hold
attr source  radioModeChanged
attr title  "Radio mode, vector"
vector 1004  Net80211_aodv.host[82].wlan[0].radio  radioChannel:vector  ETV
attr interpolationmode  sample-hold
attr source  radioChannelChanged
attr title  "Radio channel, vector"
vector 1013  Net80211_aodv.host[83].wlan[0].radio  radioMode:vector  ETV
attr interpolationmode  sample-hold
attr source  radioModeChanged
attr title  "Radio mode, vector"
vector 1016  Net80211_aodv.host[83].wlan[0].radio  radioChannel:vector  ETV
attr interpolationmode  sample-hold
attr source  radioChannelChanged
attr title  "Radio channel, vector"
vector 1025  Net80211_aodv.host[84].wlan[0].radio  radioMode:vector  ETV
attr interpolationmode  sample-hold
attr source  radioModeChanged
attr title  "Radio mode, vector"
vector 1028  Net80211_aodv.host[84].wlan[0].radio  radioChannel:vector  ETV
attr interpolationmode  sample-hold
attr source  radioChannelChanged
attr title  "Radio channel, vector"
vector 1037  Net80211_aodv.host[85].wlan[0].radio  radioMode:vector  ETV
attr interpolationmode  sample-hold
attr source  radioModeChanged
attr title  "Radio mode, vector"
vector 1040  Net80211_aodv.host[85].wlan[0].radio  radioChannel:vector  ETV
attr interpolationmode  sample-hold
attr source  radioChannelChanged
attr title  "Radio channel, vector"
vector 1049  Net80211_aodv.host[86].wlan[0].radio  radioMode:vector  ETV
attr interpolationmode  sample-hold
attr source  radioModeChanged
attr title  "Radio mode, vector"
vector 1052  Net80211_aodv.host[86].wlan[0].radio  radioChannel:vector  ETV
attr interpolationmode  sample-hold
attr source  radioChannelChanged
attr title  "Radio channel, vector"
vector 1061  Net80211_aodv.host[87].wlan[0].radio  radioMode:vector  ETV
attr interpolationmode  sample-hold
attr source  radioModeChanged
attr title  "Radio mode, vector"
vector 1064  Net80211_aodv.host[87].wlan[0].radio  radioChannel:vector  ETV
attr interpolationmode  sample-hold
attr source  radioChannelChanged
attr title  "Radio channel, vector"
vector 1073  Net80211_aodv.host[88].wlan[0].radio  radioMode:vector  ETV
attr interpolationmode  sample-hold
attr source  radioModeChanged
attr title  "Radio mode, vector"
vector 1076  Net80211_aodv.host[88].wlan[0].radio  radioChannel:vector  ETV
attr interpolationmode  sample-hold
attr source  radioChannelChanged
attr title  "Radio channel, vector"
vector 1085  Net80211_aodv.host[89].wlan[0].radio  radioMode:vector  ETV
attr interpolationmode  sample-hold
attr source  radioModeChanged
attr title  "Radio mode, vector"
vector 1088  Net80211_aodv.host[89].wlan[0].radio  radioChannel:vector  ETV
attr interpolationmode  sample-hold
attr source  radioChannelChanged
attr title  "Radio channel, vector"
vector 1097  Net80211_aodv.host[90].wlan[0].radio  radioMode:vector  ETV
attr interpolationmode  sample-hold
attr source  radioModeChanged
attr title  "Radio mode, vector"
vector 1100  Net80211_aodv.host[90].wlan[0].radio  radioChannel:vector  ETV
attr interpolationmode  sample-hold
attr source  radioChannelChanged
attr title  "Radio channel, vector"
vector 1109  Net80211_aodv.host[91].wlan[0].radio  radioMode:vector  ETV
attr interpolationmode  sample-hold
attr source  radioModeChanged
attr title  "Radio mode, vector"
vector 1112  Net80211_aodv.host[91].wlan[0].radio  radioChannel:vector  ETV
attr interpolationmode  sample-hold
attr source  radioChannelChanged
attr title  "Radio channel, vector"
vector 1121  Net80211_aodv.host[92].wlan[0].radio  radioMode:vector  ETV
attr interpolationmode  sample-hold
attr source  radioModeChanged
attr title  "Radio mode, vector"
vector 1124  Net80211_aodv.host[92].wlan[0].radio  radioChannel:vector  ETV
attr interpolationmode  sample-hold
attr source  radioChannelChanged
attr title  "Radio channel, vector"
vector 1133  Net80211_aodv.host[93].wlan[0].radio  radioMode:vector  ETV
attr interpolationmode  sample-hold
attr source  radioModeChanged
attr title  "Radio mode, vector"
vector 1136  Net80211_aodv.host[93].wlan[0].radio  radioChannel:vector  ETV
attr interpolationmode  sample-hold
attr source  radioChannelChanged
attr title  "Radio channel, vector"
vector 1145  Net80211_aodv.host[94].wlan[0].radio  radioMode:vector  ETV
attr interpolationmode  sample-hold
attr source  radioModeChanged
attr title  "Radio mode, vector"
vector 1148  Net80211_aodv.host[94].wlan[0].radio  radioChannel:vector  ETV
attr interpolationmode  sample-hold
attr source  radioChannelChanged
attr title  "Radio channel, vector"
vector 1157  Net80211_aodv.host[95].wlan[0].radio  radioMode:vector  ETV
attr interpolationmode  sample-hold
attr source  radioModeChanged
attr title  "Radio mode, vector"
vector 1160  Net80211_aodv.host[95].wlan[0].radio  radioChannel:vector  ETV
attr interpolationmode  sample-hold
attr source  radioChannelChanged
attr title  "Radio channel, vector"
vector 1169  Net80211_aodv.host[96].wlan[0].radio  radioMode:vector  ETV
attr interpolationmode  sample-hold
attr source  radioModeChanged
attr title  "Radio mode, vector"
vector 1172  Net80211_aodv.host[96].wlan[0].radio  radioChannel:vector  ETV
attr interpolationmode  sample-hold
attr source  radioChannelChanged
attr title  "Radio channel, vector"
vector 1181  Net80211_aodv.host[97].wlan[0].radio  radioMode:vector  ETV
attr interpolationmode  sample-hold
attr source  radioModeChanged
attr title  "Radio mode, vector"
vector 1184  Net80211_aodv.host[97].wlan[0].radio  radioChannel:vector  ETV
attr interpolationmode  sample-hold
attr source  radioChannelChanged
attr title  "Radio channel, vector"
vector 1193  Net80211_aodv.host[98].wlan[0].radio  radioMode:vector  ETV
attr interpolationmode  sample-hold
attr source  radioModeChanged
attr title  "Radio mode, vector"
vector 1196  Net80211_aodv.host[98].wlan[0].radio  radioChannel:vector  ETV
attr interpolationmode  sample-hold
attr source  radioChannelChanged
attr title  "Radio channel, vector"
vector 1205  Net80211_aodv.host[99].wlan[0].radio  radioMode:vector  ETV
attr interpolationmode  sample-hold
attr source  radioModeChanged
attr title  "Radio mode, vector"
vector 1208  Net80211_aodv.host[99].wlan[0].radio  radioChannel:vector  ETV
attr interpolationmode  sample-hold
attr source  radioChannelChanged
attr title  "Radio channel, vector"
vector 1225  Net80211_aodv.fixhost.wlan[0].radio  radioMode:vector  ETV
attr interpolationmode  sample-hold
attr source  radioModeChanged
attr title  "Radio mode, vector"
vector 1228  Net80211_aodv.fixhost.wlan[0].radio  radioChannel:vector  ETV
attr interpolationmode  sample-hold
attr source  radioChannelChanged
attr title  "Radio channel, vector"
vector 18  Net80211_aodv.host[0].wlan[0].radio  receptionState:vector  ETV
attr interpolationmode  sample-hold
attr source  receptionStateChanged
attr title  "Radio reception state, vector"
vector 30  Net80211_aodv.host[1].wlan[0].radio  receptionState:vector  ETV
attr interpolationmode  sample-hold
attr source  receptionStateChanged
attr title  "Radio reception state, vector"
vector 42  Net80211_aodv.host[2].wlan[0].radio  receptionState:vector  ETV
attr interpolationmode  sample-hold
attr source  receptionStateChanged
attr title  "Radio reception state, vector"
vector 54  Net80211_aodv.host[3].wlan[0].radio  receptionState:vector  ETV
attr interpolationmode  sample-hold
attr source  receptionStateChanged
attr title  "Radio reception state, vector"
vector 66  Net80211_aodv.host[4].wlan[0].radio  receptionState:vector  ETV
attr interpolationmode  sample-hold
attr source  receptionStateChanged
attr title  "Radio reception state, vector"
vector 78  Net80211_aodv.host[5].wlan[0].radio  receptionState:vector  ETV
attr interpolationmode  sample-hold
attr source  receptionStateChanged
attr title  "Radio reception state, vector"
vector 90  Net80211_aodv.host[6].wlan[0].radio  receptionState:vector  ETV
attr interpolationmode  sample-hold
attr source  receptionStateChanged
attr title  "Radio reception state, vector"
vector 102  Net80211_aodv.host[7].wlan[0].radio  receptionState:vector  ETV
attr interpolationmode  sample-hold
attr source  receptionStateChanged
attr title  "Radio reception state, vector"
vector 114  Net80211_aodv.host[8].wlan[0].radio  receptionState:vector  ETV
attr interpolationmode  sample-hold
attr source  receptionStateChanged
attr title  "Radio reception state, vector"
vector 126  Net80211_aodv.host[9].wlan[0].radio  receptionState:vector  ETV
attr interpolationmode  sample-hold
attr source  receptionStateChanged
attr title  "Radio reception state, vector"
vector 138  Net80211_aodv.host[10].wlan[0].radio  receptionState:vector  ETV
attr interpolationmode  sample-hold
attr source  receptionStateChanged
attr title  "Radio reception state, vector"
vector 150  Net80211_aodv.host[11].wlan[0].radio  receptionState:vector  ETV
attr interpolationmode  sample-hold
attr source  receptionStateChanged
attr title  "Radio reception state, vector"
vector 162  Net80211_aodv.host[12].wlan[0].radio  receptionState:vector  ETV
attr interpolationmode  sample-hold
attr source  receptionStateChanged
attr title  "Radio reception state, vector"
vector 174  Net80211_aodv.host[13].wlan[0].radio  receptionState:vector  ETV
attr interpolationmode  sample-hold
attr source  receptionStateChanged
attr title  "Radio reception state, vector"
vector 186  Net80211_aodv.host[14].wlan[0].radio  receptionState:vector  ETV
attr interpolationmode  sample-hold
attr source  receptionStateChanged
attr title  "Radio reception state, vector"
vector 198  Net80211_aodv.host[15].wlan[0].radio  receptionState:vector  ETV
attr interpolationmode  sample-hold
attr source  receptionStateChanged
attr title  "Radio reception state, vector"
vector 210  Net80211_aodv.host[16].wlan[0].radio  receptionState:vector  ETV
attr interpolationmode  sample-hold
attr source  receptionStateChanged
attr title  "Radio reception state, vector"
vector 222  Net80211_aodv.host[17].wlan[0].radio  receptionState:vector  ETV
attr interpolationmode  sample-hold
attr source  receptionStateChanged
attr title  "Radio reception state, vector"
vector 234  Net80211_aodv.host[18].wlan[0].radio  receptionState:vector  ETV
attr interpolationmode  sample-hold
attr source  receptionStateChanged
attr title  "Radio reception state, vector"
vector 246  Net80211_aodv.host[19].wlan[0].radio  receptionState:vector  ETV
attr interpolationmode  sample-hold
attr source  receptionStateChanged
attr title  "Radio reception state, vector"
vector 258  Net80211_aodv.host[20].wlan[0].radio  receptionState:vector  ETV
attr interpolationmode  sample-hold
attr source  receptionStateChanged
attr title  "Radio reception state, vector"
vector 270  Net80211_aodv.host[21].wlan[0].radio  receptionState:vector  ETV
attr interpolationmode  sample-hold
attr source  receptionStateChanged
attr title  "Radio reception state, vector"
vector 282  Net80211_aodv.host[22].wlan[0].radio  receptionState:vector  ETV
attr interpolationmode  sample-hold
attr source  receptionStateChanged
attr title  "Radio reception state, vector"
vector 294  Net80211_aodv.host[23].wlan[0].radio  receptionState:vector  ETV
attr interpolationmode  sample-hold
attr source  receptionStateChanged
attr title  "Radio reception state, vector"
vector 306  Net80211_aodv.host[24].wlan[0].radio  receptionState:vector  ETV
attr interpolationmode  sample-hold
attr source  receptionStateChanged
attr title  "Radio reception state, vector"
vector 318  Net80211_aodv.host[25].wlan[0].radio  receptionState:vector  ETV
attr interpolationmode  sample-hold
attr source  receptionStateChanged
attr title  "Radio reception state, vector"
vector 330  Net80211_aodv.host[26].wlan[0].radio  receptionState:vector  ETV
attr interpolationmode  sample-hold
attr source  receptionStateChanged
attr title  "Radio reception state, vector"
vector 342  Net80211_aodv.host[27].wlan[0].radio  receptionState:vector  ETV
attr interpolationmode  sample-hold
attr source  receptionStateChanged
attr title  "Radio reception state, vector"
vector 354  Net80211_aodv.host[28].wlan[0].radio  receptionState:vector  ETV
attr interpolationmode  sample-hold
attr source  receptionStateChanged
attr title  "Radio reception state, vector"
vector 366  Net80211_aodv.host[29].wlan[0].radio  receptionState:vector  ETV
attr interpolationmode  sample-hold
attr source  receptionStateChanged
attr title  "Radio reception state, vector"
vector 378  Net80211_aodv.host[30].wlan[0].radio  receptionState:vector  ETV
attr interpolationmode  sample-hold
attr source  receptionStateChanged
attr title  "Radio reception state, vector"
vector 390  Net80211_aodv.host[31].wlan[0].radio  receptionState:vector  ETV
attr interpolationmode  sample-hold
attr source  receptionStateChanged
attr title  "Radio reception state, vector"
vector 402  Net80211_aodv.host[32].wlan[0].radio  receptionState:vector  ETV
attr interpolationmode  sample-hold
attr source  receptionStateChanged
attr title  "Radio reception state, vector"
vector 414  Net80211_aodv.host[33].wlan[0].radio  receptionState:vector  ETV
attr interpolationmode  sample-hold
attr source  receptionStateChanged
attr title  "Radio reception state, vector"
vector 426  Net80211_aodv.host[34].wlan[0].radio  receptionState:vector  ETV
attr interpolationmode  sample-hold
attr source  receptionStateChanged
attr title  "Radio reception state, vector"
vector 438  Net80211_aodv.host[35].wlan[0].radio  receptionState:vector  ETV
attr interpolationmode  sample-hold
attr source  receptionStateChanged
attr title  "Radio reception state, vector"
vector 450  Net80211_aodv.host[36].wlan[0].radio  receptionState:vector  ETV
attr interpolationmode  sample-hold
attr source  receptionStateChanged
attr title  "Radio reception state, vector"
vector 462  Net80211_aodv.host[37].wlan[0].radio  receptionState:vector  ETV
attr interpolationmode  sample-hold
attr source  receptionStateChanged
attr title  "Radio reception state, vector"
vector 474  Net80211_aodv.host[38].wlan[0].radio  receptionState:vector  ETV
attr interpolationmode  sample-hold
attr source  receptionStateChanged
attr title  "Radio reception state, vector"
vector 486  Net80211_aodv.host[39].wlan[0].radio  receptionState:vector  ETV
attr interpolationmode  sample-hold
attr source  receptionStateChanged
attr title  "Radio reception state, vector"
vector 498  Net80211_aodv.host[40].wlan[0].radio  receptionState:vector  ETV
attr interpolationmode  sample-hold
attr source  receptionStateChanged
attr title  "Radio reception state, vector"
vector 510  Net80211_aodv.host[41].wlan[0].radio  receptionState:vector  ETV
attr interpolationmode  sample-hold
attr source  receptionStateChanged
attr title  "Radio reception state, vector"
vector 522  Net80211_aodv.host[42].wlan[0].radio  receptionState:vector  ETV
attr interpolationmode  sample-hold
attr source  receptionStateChanged
attr title  "Radio reception state, vector"
vector 534  Net80211_aodv.host[43].wlan[0].radio  receptionState:vector  ETV
attr interpolationmode  sample-hold
attr source  receptionStateChanged
attr title  "Radio reception state, vector"
vector 546  Net80211_aodv.host[44].wlan[0].radio  receptionState:vector  ETV
attr interpolationmode  sample-hold
attr source  receptionStateChanged
attr title  "Radio reception state, vector"
vector 558  Net80211_aodv.host[45].wlan[0].radio  receptionState:vector  ETV
attr interpolationmode  sample-hold
attr source  receptionStateChanged
attr title  "Radio reception state, vector"
vector 570  Net80211_aodv.host[46].wlan[0].radio  receptionState:vector  ETV
attr interpolationmode  sample-hold
attr source  receptionStateChanged
attr title  "Radio reception state, vector"
vector 582  Net80211_aodv.host[47].wlan[0].radio  receptionState:vector  ETV
attr interpolationmode  sample-hold
attr source  receptionStateChanged
attr title  "Radio reception state, vector"
vector 594  Net80211_aodv.host[48].wlan[0].radio  receptionState:vector  ETV
attr interpolationmode  sample-hold
attr source  receptionStateChanged
attr title  "Radio reception state, vector"
vector 606  Net80211_aodv.host[49].wlan[0].radio  receptionState:vector  ETV
attr interpolationmode  sample-hold
attr source  receptionStateChanged
attr title  "Radio reception state, vector"
vector 618  Net80211_aodv.host[50].wlan[0].radio  receptionState:vector  ETV
attr interpolationmode  sample-hold
attr source  receptionStateChanged
attr title  "Radio reception state, vector"
vector 630  Net80211_aodv.host[51].wlan[0].radio  receptionState:vector  ETV
attr interpolationmode  sample-hold
attr source  receptionStateChanged
attr title  "Radio reception state, vector"
vector 642  Net80211_aodv.host[52].wlan[0].radio  receptionState:vector  ETV
attr interpolationmode  sample-hold
attr source  receptionStateChanged
attr title  "Radio reception state, vector"
vector 654  Net80211_aodv.host[53].wlan[0].radio  receptionState:vector  ETV
attr interpolationmode  sample-hold
attr source  receptionStateChanged
attr title  "Radio reception state, vector"
vector 666  Net80211_aodv.host[54].wlan[0].radio  receptionState:vector  ETV
attr interpolationmode  sample-hold
attr source  receptionStateChanged
attr title  "Radio reception state, vector"
vector 678  Net80211_aodv.host[55].wlan[0].radio  receptionState:vector  ETV
attr interpolationmode  sample-hold
attr source  receptionStateChanged
attr title  "Radio reception state, vector"
vector 690  Net80211_aodv.host[56].wlan[0].radio  receptionState:vector  ETV
attr interpolationmode  sample-hold
attr source  receptionStateChanged
attr title  "Radio reception state, vector"
vector 702  Net80211_aodv.host[57].wlan[0].radio  receptionState:vector  ETV
attr interpolationmode  sample-hold
attr source  receptionStateChanged
attr title  "Radio reception state, vector"
vector 714  Net80211_aodv.host[58].wlan[0].radio  receptionState:vector  ETV
attr interpolationmode  sample-hold
attr source  receptionStateChanged
attr title  "Radio reception state, vector"
vector 726  Net80211_aodv.host[59].wlan[0].radio  receptionState:vector  ETV
attr interpolationmode  sample-hold
attr source  receptionStateChanged
attr title  "Radio reception state, vector"
vector 738  Net80211_aodv.host[60].wlan[0].radio  receptionState:vector  ETV
attr interpolationmode  sample-hold
attr source  receptionStateChanged
attr title  "Radio reception state, vector"
vector 750  Net80211_aodv.host[61].wlan[0].radio  receptionState:vector  ETV
attr interpolationmode  sample-hold
attr source  receptionStateChanged
attr title  "Radio reception state, vector"
vector 762  Net80211_aodv.host[62].wlan[0].radio  receptionState:vector  ETV
attr interpolationmode  sample-hold
attr source  receptionStateChanged
attr title  "Radio reception state, vector"
vector 774  Net80211_aodv.host[63].wlan[0].radio  receptionState:vector  ETV
attr interpolationmode  sample-hold
attr source  receptionStateChanged
attr title  "Radio reception state, vector"
vector 786  Net80211_aodv.host[64].wlan[0].radio  receptionState:vector  ETV
attr interpolationmode  sample-hold
attr source  receptionStateChanged
attr title  "Radio reception state, vector"
vector 798  Net80211_aodv.host[65].wlan[0].radio  receptionState:vector  ETV
attr interpolationmode  sample-hold
attr source  receptionStateChanged
attr title  "Radio reception state, vector"
vector 810  Net80211_aodv.host[66].wlan[0].radio  receptionState:vector  ETV
attr interpolationmode  sample-hold
attr source  receptionStateChanged
attr title  "Radio reception state, vector"
vector 822  Net80211_aodv.host[67].wlan[0].radio  receptionState:vector  ETV
attr interpolationmode  sample-hold
attr source  receptionStateChanged
attr title  "Radio reception state, vector"
vector 834  Net80211_aodv.host[68].wlan[0].radio  receptionState:vector  ETV
attr interpolationmode  sample-hold
attr source  receptionStateChanged
attr title  "Radio reception state, vector"
vector 846  Net80211_aodv.host[69].wlan[0].radio  receptionState:vector  ETV
attr interpolationmode  sample-hold
attr source  receptionStateChanged
attr title  "Radio reception state, vector"
vector 858  Net80211_aodv.host[70].wlan[0].radio  receptionState:vector  ETV
attr interpolationmode  sample-hold
attr source  receptionStateChanged
attr title  "Radio reception state, vector"
vector 870  Net80211_aodv.host[71].wlan[0].radio  receptionState:vector  ETV
attr interpolationmode  sample-hold
attr source  receptionStateChanged
attr title  "Radio reception state, vector"
vector 882  Net80211_aodv.host[72].wlan[0].radio  receptionState:vector  ETV
attr interpolationmode  sample-hold
attr source  receptionStateChanged
attr title  "Radio reception state, vector"
vector 894  Net80211_aodv.host[73].wlan[0].radio  receptionState:vector  ETV
attr interpolationmode  sample-hold
attr source  receptionStateChanged
attr title  "Radio reception state, vector"
vector 906  Net80211_aodv.host[74].wlan[0].radio  receptionState:vector  ETV
attr interpolationmode  sample-hold
attr source  receptionStateChanged
attr title  "Radio reception state, vector"
vector 918  Net80211_aodv.host[75].wlan[0].radio  receptionState:vector  ETV
attr interpolationmode  sample-hold
attr source  receptionStateChanged
attr title  "Radio reception state, vector"
vector 930  Net80211_aodv.host[76].wlan[0].radio  receptionState:vector  ETV
attr interpolationmode  sample-hold
attr source  receptionStateChanged
attr title  "Radio reception state, vector"
vector 942  Net80211_aodv.host[77].wlan[0].radio  receptionState:vector  ETV
attr interpolationmode  sample-hold
attr source  receptionStateChanged
attr title  "Radio reception state, vector"
vector 954  Net80211_aodv.host[78].wlan[0].radio  receptionState:vector  ETV
attr interpolationmode  sample-hold
attr source  receptionStateChanged
attr title  "Radio reception state, vector"
vector 966  Net80211_aodv.host[79].wlan[0].radio  receptionState:vector  ETV
attr interpolationmode  sample-hold
attr source  receptionStateChanged
attr title  "Radio reception state, vector"
vector 978  Net80211_aodv.host[80].wlan[0].radio  receptionState:vector  ETV
attr interpolationmode  sample-hold
attr source  receptionStateChanged
attr title  "Radio reception state, vector"
vector 990  Net80211_aodv.host[81].wlan[0].radio  receptionState:vector  ETV
attr interpolationmode  sample-hold
attr source  receptionStateChanged
attr title  "Radio reception state, vector"
vector 1002  Net80211_aodv.host[82].wlan[0].radio  receptionState:vector  ETV
attr interpolationmode  sample-hold
attr source  receptionStateChanged
attr title  "Radio reception state, vector"
vector 1014  Net80211_aodv.host[83].wlan[0].radio  receptionState:vector  ETV
attr interpolationmode  sample-hold
attr source  receptionStateChanged
attr title  "Radio reception state, vector"
vector 1026  Net80211_aodv.host[84].wlan[0].radio  receptionState:vector  ETV
attr interpolationmode  sample-hold
attr source  receptionStateChanged
attr title  "Radio reception state, vector"
vector 1038  Net80211_aodv.host[85].wlan[0].radio  receptionState:vector  ETV
attr interpolationmode  sample-hold
attr source  receptionStateChanged
attr title  "Radio reception state, vector"
vector 1050  Net80211_aodv.host[86].wlan[0].radio  receptionState:vector  ETV
attr interpolationmode  sample-hold
attr source  receptionStateChanged
attr title  "Radio reception state, vector"
vector 1062  Net80211_aodv.host[87].wlan[0].radio  receptionState:vector  ETV
attr interpolationmode  sample-hold
attr source  receptionStateChanged
attr title  "Radio reception state, vector"
vector 1074  Net80211_aodv.host[88].wlan[0].radio  receptionState:vector  ETV
attr interpolationmode  sample-hold
attr source  receptionStateChanged
attr title  "Radio reception state, vector"
vector 1086  Net80211_aodv.host[89].wlan[0].radio  receptionState:vector  ETV
attr interpolationmode  sample-hold
attr source  receptionStateChanged
attr title  "Radio reception state, vector"
vector 1098  Net80211_aodv.host[90].wlan[0].radio  receptionState:vector  ETV
attr interpolationmode  sample-hold
attr source  receptionStateChanged
attr title  "Radio reception state, vector"
vector 1110  Net80211_aodv.host[91].wlan[0].radio  receptionState:vector  ETV
attr interpolationmode  sample-hold
attr source  receptionStateChanged
attr title  "Radio reception state, vector"
vector 1122  Net80211_aodv.host[92].wlan[0].radio  receptionState:vector  ETV
attr interpolationmode  sample-hold
attr source  receptionStateChanged
attr title  "Radio reception state, vector"
vector 1134  Net80211_aodv.host[93].wlan[0].radio  receptionState:vector  ETV
attr interpolationmode  sample-hold
attr source  receptionStateChanged
attr title  "Radio reception state, vector"
vector 1146  Net80211_aodv.host[94].wlan[0].radio  receptionState:vector  ETV
attr interpolationmode  sample-hold
attr source  receptionStateChanged
attr title  "Radio reception state, vector"
vector 1158  Net80211_aodv.host[95].wlan[0].radio  receptionState:vector  ETV
attr interpolationmode  sample-hold
attr source  receptionStateChanged
attr title  "Radio reception state, vector"
vector 1170  Net80211_aodv.host[96].wlan[0].radio  receptionState:vector  ETV
attr interpolationmode  sample-hold
attr source  receptionStateChanged
attr title  "Radio reception state, vector"
vector 1182  Net80211_aodv.host[97].wlan[0].radio  receptionState:vector  ETV
attr interpolationmode  sample-hold
attr source  receptionStateChanged
attr title  "Radio reception state, vector"
vector 1194  Net80211_aodv.host[98].wlan[0].radio  receptionState:vector  ETV
attr interpolationmode  sample-hold
attr source  receptionStateChanged
attr title  "Radio reception state, vector"
vector 1206  Net80211_aodv.host[99].wlan[0].radio  receptionState:vector  ETV
attr interpolationmode  sample-hold
attr source  receptionStateChanged
attr title  "Radio reception state, vector"
vector 1226  Net80211_aodv.fixhost.wlan[0].radio  receptionState:vector  ETV
attr interpolationmode  sample-hold
attr source  receptionStateChanged
attr title  "Radio reception state, vector"
vector 0  Net80211_aodv.host[0].udpApp[0]  sentPk:vector(packetBytes)  ETV
attr interpolationmode  none
attr source  sentPk
attr title  "packets sent, vector(packetBytes)"
vector 5  Net80211_aodv.host[0].udp  sentPk:vector(packetBytes)  ETV
attr interpolationmode  none
attr source  sentPk
attr title  "packets sent, vector(packetBytes)"
vector 15  Net80211_aodv.host[0].wlan[0].mac  rcvdPkFromHL:vector(packetBytes)  ETV
attr interpolationmode  none
attr source  packetReceivedFromUpper
attr title  "packets received from higher layer, vector(packetBytes)"
vector 14  Net80211_aodv.host[0].wlan[0].mac  sentDownPk:vector(packetBytes)  ETV
attr interpolationmode  none
attr source  packetSentToLower
attr title  "packets sent to lower layer, vector(packetBytes)"
vector 19  Net80211_aodv.host[0].wlan[0].radio  transmissionState:vector  ETV
attr interpolationmode  sample-hold
attr source  transmissionStateChanged
attr title  "Radio transmission state, vector"
vector 184  Net80211_aodv.host[14].wlan[0].mac  rcvdPkFromLL:vector(packetBytes)  ETV
attr interpolationmode  none
attr source  packetReceivedFromLower
attr title  "packets received from lower layer, vector(packetBytes)"
vector 181  Net80211_aodv.host[14].wlan[0].mac  passedUpPk:vector(packetBytes)  ETV
attr interpolationmode  none
attr source  packetSentToUpper
attr title  "packets passed to higher layer, vector(packetBytes)"
vector 1024  Net80211_aodv.host[84].wlan[0].mac  rcvdPkFromLL:vector(packetBytes)  ETV
attr interpolationmode  none
attr source  packetReceivedFromLower
attr title  "packets received from lower layer, vector(packetBytes)"
vector 1021  Net80211_aodv.host[84].wlan[0].mac  passedUpPk:vector(packetBytes)  ETV
attr interpolationmode  none
attr source  packetSentToUpper
attr title  "packets passed to higher layer, vector(packetBytes)"
vector 364  Net80211_aodv.host[29].wlan[0].mac  rcvdPkFromLL:vector(packetBytes)  ETV
attr interpolationmode  none
attr source  packetReceivedFromLower
attr title  "packets received from lower layer, vector(packetBytes)"
vector 361  Net80211_aodv.host[29].wlan[0].mac  passedUpPk:vector(packetBytes)  ETV
attr interpolationmode  none
attr source  packetSentToUpper
attr title  "packets passed to higher layer, vector(packetBytes)"
vector 1023  Net80211_aodv.host[84].wlan[0].mac  rcvdPkFromHL:vector(packetBytes)  ETV
attr interpolationmode  none
attr source  packetReceivedFromUpper
attr title  "packets received from higher layer, vector(packetBytes)"
vector 1022  Net80211_aodv.host[84].wlan[0].mac  sentDownPk:vector(packetBytes)  ETV
attr interpolationmode  none
attr source  packetSentToLower
attr title  "packets sent to lower layer, vector(packetBytes)"
vector 1027  Net80211_aodv.host[84].wlan[0].radio  transmissionState:vector  ETV
attr interpolationmode  sample-hold
attr source  transmissionStateChanged
attr title  "Radio transmission state, vector"
vector 280  Net80211_aodv.host[22].wlan[0].mac  rcvdPkFromLL:vector(packetBytes)  ETV
attr interpolationmode  none
attr source  packetReceivedFromLower
attr title  "packets received from lower layer, vector(packetBytes)"
vector 277  Net80211_aodv.host[22].wlan[0].mac  passedUpPk:vector(packetBytes)  ETV
attr interpolationmode  none
attr source  packetSentToUpper
attr title  "packets passed to higher layer, vector(packetBytes)"
vector 100  Net80211_aodv.host[7].wlan[0].mac  rcvdPkFromLL:vector(packetBytes)  ETV
attr interpolationmode  none
attr source  packetReceivedFromLower
attr title  "packets received from lower layer, vector(packetBytes)"
vector 97  Net80211_aodv.host[7].wlan[0].mac  passedUpPk:vector(packetBytes)  ETV
attr interpolationmode  none
attr source  packetSentToUpper
attr title  "packets passed to higher layer, vector(packetBytes)"
vector 16  Net80211_aodv.host[0].wlan[0].mac  rcvdPkFromLL:vector(packetBytes)  ETV
attr interpolationmode  none
attr source  packetReceivedFromLower
attr title  "packets received from lower layer, vector(packetBytes)"
vector 13  Net80211_aodv.host[0].wlan[0].mac  passedUpPk:vector(packetBytes)  ETV
attr interpolationmode  none
attr source  packetSentToUpper
attr title  "packets passed to higher layer, vector(packetBytes)"
vector 99  Net80211_aodv.host[7].wlan[0].mac  rcvdPkFromHL:vector(packetBytes)  ETV
attr interpolationmode  none
attr source  packetReceivedFromUpper
attr title  "packets received from higher layer, vector(packetBytes)"
vector 98  Net80211_aodv.host[7].wlan[0].mac  sentDownPk:vector(packetBytes)  ETV
attr interpolationmode  none
attr source  packetSentToLower
attr title  "packets sent to lower layer, vector(packetBytes)"
vector 103  Net80211_aodv.host[7].wlan[0].radio  transmissionState:vector  ETV
attr interpolationmode  sample-hold
attr source  transmissionStateChanged
attr title  "Radio transmission state, vector"
vector 796  Net80211_aodv.host[65].wlan[0].mac  rcvdPkFromLL:vector(packetBytes)  ETV
attr interpolationmode  none
attr source  packetReceivedFromLower
attr title  "packets received from lower layer, vector(packetBytes)"
vector 793  Net80211_aodv.host[65].wlan[0].mac  passedUpPk:vector(packetBytes)  ETV
attr interpolationmode  none
attr source  packetSentToUpper
attr title  "packets passed to higher layer, vector(packetBytes)"
vector 220  Net80211_aodv.host[17].wlan[0].mac  rcvdPkFromLL:vector(packetBytes)  ETV
attr interpolationmode  none
attr source  packetReceivedFromLower
attr title  "packets received from lower layer, vector(packetBytes)"
vector 217  Net80211_aodv.host[17].wlan[0].mac  passedUpPk:vector(packetBytes)  ETV
attr interpolationmode  none
attr source  packetSentToUpper
attr title  "packets passed to higher layer, vector(packetBytes)"
vector 363  Net80211_aodv.host[29].wlan[0].mac  rcvdPkFromHL:vector(packetBytes)  ETV
attr interpolationmode  none
attr source  packetReceivedFromUpper
[...]
1085	24413	14.900713597908	3
1085	24516	14.900863597908	2
1086	0	0	1
1086	8859	11.213816026178	3
1086	9095	11.213966026178	1
1086	9921	11.215033836085	3
1086	10029	11.215183836085	1
1086	10400	11.21681451451	3
1086	10511	11.21696451451	1
1086	14490	11.940341884601	3
1086	14601	11.940491884601	1
1086	14730	11.940675143053	3
1086	14838	11.940825143053	1
1086	14973	11.941960740008	3
1086	15085	11.942110740008	1
1086	15911	11.944343439012	3
1086	16013	11.944493439012	1
1086	16374	11.944963439012	0
1086	16477	11.945113439012	1
1086	16627	11.945772654953	3
1086	16738	11.945922654953	1
1086	17302	11.947421255858	3
1086	17408	11.947571255858	1
1086	23942	14.900133597908	3
1086	24053	14.900283597908	1
1086	24413	14.900713597908	0
1086	24516	14.900863597908	1
1086	25127	14.901504831522	3
1086	25232	14.901654831522	1
1086	25349	14.901765085861	3
1086	25451	14.901915085861	1
1086	25816	14.903591980002	3
1086	25927	14.903741980002	1
1086	26166	14.904252032401	3
1086	26377	14.904402032401	1
1086	26506	14.904781802731	3
1086	26617	14.904931802731	1
1087	16374	11.944963439012	1
1087	16375	11.944963439012	2
1087	16476	11.945113439012	1
1087	16477	11.945113439012	0
1087	24413	14.900713597908	1
1087	24414	14.900713597908	2
1087	24515	14.900863597908	1
1087	24516	14.900863597908	0
1088	0	0	0
1089	0	0	0
1089	0	0	0
1089	0	0	0
1089	0	0	0
1089	8859	11.213816026178	0
1089	8859	11.213816026178	0
1089	9095	11.213966026178	0
1089	9095	11.213966026178	0
1089	9921	11.215033836085	0
1089	9921	11.215033836085	0
1089	10029	11.215183836085	0
1089	10029	11.215183836085	0
1089	10400	11.21681451451	0
1089	10400	11.21681451451	0
1089	10511	11.21696451451	0
1089	10511	11.21696451451	0
1089	14490	11.940341884601	0
1089	14490	11.940341884601	0
1089	14601	11.940491884601	0
1089	14601	11.940491884601	0
1089	14730	11.940675143053	0
1089	14730	11.940675143053	0
1089	14838	11.940825143053	0
1089	14838	11.940825143053	0
1089	14973	11.941960740008	0
1089	14973	11.941960740008	0
1089	15085	11.942110740008	0
1089	15085	11.942110740008	0
1089	15911	11.944343439012	0
1089	15911	11.944343439012	0
1089	16013	11.944493439012	0
1089	16013	11.944493439012	0
1089	16251	11.944743927932	0
1089	16251	11.944743927932	2
1089	16372	11.944963439012	2
1089	16372	11.944963439012	3
1089	16374	11.944963439012	3
1089	16374	11.944963439012	3
1089	16476	11.945113439012	3
1089	16476	11.945113439012	0
1089	16477	11.945113439012	0
1089	16477	11.945113439012	0
1089	16627	11.945772654953	0
1089	16627	11.945772654953	0
1089	16738	11.945922654953	0
1089	16738	11.945922654953	0
1089	17302	11.947421255858	0
1089	17302	11.947421255858	0
1089	17408	11.947571255858	0
1089	17408	11.947571255858	0
1089	23942	14.900133597908	0
1089	23942	14.900133597908	0
1089	24053	14.900283597908	0
1089	24053	14.900283597908	0
1089	24284	14.90049139483	0
1089	24284	14.90049139483	2
1089	24411	14.900713597908	2
1089	24411	14.900713597908	3
1089	24413	14.900713597908	3
1089	24413	14.900713597908	3
1089	24515	14.900863597908	3
1089	24515	14.900863597908	0
1089	24516	14.900863597908	0
1089	24516	14.900863597908	0
1089	25127	14.901504831522	0
1089	25127	14.901504831522	0
1089	25232	14.901654831522	0
1089	25232	14.901654831522	0
1089	25349	14.901765085861	0
1089	25349	14.901765085861	0
1089	25451	14.901915085861	0
1089	25451	14.901915085861	0
1089	25816	14.903591980002	0
1089	25816	14.903591980002	0
1089	25927	14.903741980002	0
1089	25927	14.903741980002	0
1089	26166	14.904252032401	0
1089	26166	14.904252032401	0
1089	26377	14.904402032401	0
1089	26377	14.904402032401	0
1089	26506	14.904781802731	0
1089	26506	14.904781802731	0
1089	26617	14.904931802731	0
1089	26617	14.904931802731	0
1093	5170	10.651295920599	88
1093	7258	11.208826361126	88
1093	7866	11.210410727946	88
1093	8110	11.211212181832	88
1093	8352	11.21195328839	88
1093	8963	11.213894867978	88
1093	9330	11.214171923741	88
1093	12640	11.933600541147	88
1093	12878	11.93512115419	88
1093	13121	11.936618965192	88
1093	13855	11.93804028158	88
1093	14109	11.939441919268	88
1093	14341	11.94022318697	88
1093	21889	14.893951659509	88
1093	22372	14.895726977751	88
1093	22614	14.895886472881	88
1093	22846	14.896508213214	88
1093	23204	14.897237899798	88
1093	23551	14.898605240958	88
1094	7512	11.209447343949	88
1094	13250	11.937139227551	88
1094	22017	14.895077972922	88
1095	7510	11.209447343949	88
1095	13248	11.937139227551	88
1095	22015	14.895077972922	88
1096	5170	10.651295920599	88
1096	7258	11.208826361126	88
1096	7866	11.210410727946	88
1096	8110	11.211212181832	88
1096	8352	11.21195328839	88
1096	8963	11.213894867978	88
1096	9330	11.214171923741	88
1096	12640	11.933600541147	88
1096	12878	11.93512115419	88
1096	13121	11.936618965192	88
1096	13855	11.93804028158	88
1096	14109	11.939441919268	88
1096	14341	11.94022318697	88
1096	21889	14.893951659509	88
1096	22372	14.895726977751	88
1096	22614	14.895886472881	88
1096	22846	14.896508213214	88
1096	23204	14.897237899798	88
1096	23551	14.898605240958	88
1097	0	0	0
1097	0	0	2
1097	7513	11.209447343949	3
1097	7616	11.209597343949	2
1097	13251	11.937139227551	3
1097	13355	11.937289227551	2
1097	22018	14.895077972922	3
1097	22122	14.895227972922	2
1098	0	0	1
1098	5061	10.651145920599	3
1098	5169	10.651295920599	1
1098	7045	11.208676361126	3
1098	7257	11.208826361126	1
1098	7513	11.209447343949	0
1098	7616	11.209597343949	1
1098	7763	11.210260727946	3
1098	7865	11.210410727946	1
1098	7999	11.211062181832	3
1098	8109	11.211212181832	1
1098	8246	11.21180328839	3
1098	8351	11.21195328839	1
1098	8747	11.213744867978	3
1098	8962	11.213894867978	1
1098	9221	11.214021923741	3
1098	9329	11.214171923741	1
1098	12531	11.933450541147	3
1098	12639	11.933600541147	1
1098	12772	11.93497115419	3
1098	12877	11.93512115419	1
1098	13018	11.936468965192	3
1098	13120	11.936618965192	1
1098	13251	11.937139227551	0
1098	13355	11.937289227551	1
1098	13749	11.93789028158	3
1098	13854	11.93804028158	1
1098	14000	11.939291919268	3
1098	14108	11.939441919268	1
1098	14235	11.94007318697	3
1098	14340	11.94022318697	1
1098	21780	14.893801659509	3
1098	21888	14.893951659509	1
1098	22018	14.895077972922	0
1098	22122	14.895227972922	1
1098	22268	14.895576977751	3
1098	22371	14.895726977751	1
1098	22493	14.895736472881	3
1098	22613	14.895886472881	1
1098	22740	14.896358213214	3
1098	22845	14.896508213214	1
1098	22989	14.897087899798	3
1098	23203	14.897237899798	1
1098	23445	14.898455240958	3
1098	23550	14.898605240958	1
1099	7513	11.209447343949	1
1099	7514	11.209447343949	2
1099	7615	11.209597343949	1
1099	7616	11.209597343949	0
1099	13251	11.937139227551	1
1099	13252	11.937139227551	2
1099	13354	11.937289227551	1
1099	13355	11.937289227551	0
1099	22018	14.895077972922	1
1099	22019	14.895077972922	2
1099	22121	14.895227972922	1
1099	22122	14.895227972922	0
1100	0	0	0
1101	0	0	0
1101	0	0	0
1101	0	0	0
1101	0	0	0
1101	5061	10.651145920599	0
1101	5061	10.651145920599	0
1101	5169	10.651295920599	0
1101	5169	10.651295920599	0
1101	7045	11.208676361126	0
1101	7045	11.208676361126	0
1101	7257	11.208826361126	0
1101	7257	11.208826361126	0
1101	7510	11.209447343949	0
1101	7510	11.209447343949	2
1101	7511	11.209447343949	2
1101	7511	11.209447343949	3
1101	7513	11.209447343949	3
1101	7513	11.209447343949	3
1101	7615	11.209597343949	3
1101	7615	11.209597343949	0
1101	7616	11.209597343949	0
1101	7616	11.209597343949	0
1101	7763	11.210260727946	0
1101	7763	11.210260727946	0
1101	7865	11.210410727946	0
1101	7865	11.210410727946	0
1101	7999	11.211062181832	0
1101	7999	11.211062181832	0
1101	8109	11.211212181832	0
1101	8109	11.211212181832	0
1101	8246	11.21180328839	0
1101	8246	11.21180328839	0
1101	8351	11.21195328839	0
1101	8351	11.21195328839	0
1101	8747	11.213744867978	0
1101	8747	11.213744867978	0
1101	8962	11.213894867978	0
1101	8962	11.213894867978	0
1101	9221	11.214021923741	0
1101	9221	11.214021923741	0
1101	9329	11.214171923741	0
1101	9329	11.214171923741	0
1101	12531	11.933450541147	0
1101	12531	11.933450541147	0
1101	12639	11.933600541147	0
1101	12639	11.933600541147	0
1101	12772	11.93497115419	0
1101	12772	11.93497115419	0
1101	12877	11.93512115419	0
1101	12877	11.93512115419	0
1101	13018	11.936468965192	0
1101	13018	11.936468965192	0
1101	13120	11.936618965192	0
1101	13120	11.936618965192	0
1101	13248	11.937139227551	0
1101	13248	11.937139227551	2
1101	13249	11.937139227551	2
1101	13249	11.937139227551	3
1101	13251	11.937139227551	3
1101	13251	11.937139227551	3
1101	13354	11.937289227551	3
1101	13354	11.937289227551	0
1101	13355	11.937289227551	0
1101	13355	11.937289227551	0
1101	13749	11.93789028158	0
1101	13749	11.93789028158	0
1101	13854	11.93804028158	0
1101	13854	11.93804028158	0
1101	14000	11.939291919268	0
1101	14000	11.939291919268	0
1101	14108	11.939441919268	0
1101	14108	11.939441919268	0
1101	14235	11.94007318697	0
1101	14235	11.94007318697	0
1101	14340	11.94022318697	0
1101	14340	11.94022318697	0
1101	21780	14.893801659509	0
1101	21780	14.893801659509	0
1101	21888	14.893951659509	0
1101	21888	14.893951659509	0
1101	22015	14.895077972922	0
1101	22015	14.895077972922	2
1101	22016	14.895077972922	2
1101	22016	14.895077972922	3
1101	22018	14.895077972922	3
1101	22018	14.895077972922	3
1101	22121	14.895227972922	3
1101	22121	14.895227972922	0
1101	22122	14.895227972922	0
1101	22122	14.895227972922	0
1101	22268	14.895576977751	0
1101	22268	14.895576977751	0
1101	22371	14.895726977751	0
1101	22371	14.895726977751	0
1101	22493	14.895736472881	0
1101	22493	14.895736472881	0
1101	22613	14.895886472881	0
1101	22613	14.895886472881	0
1101	22740	14.896358213214	0
1101	22740	14.896358213214	0
1101	22845	14.896508213214	0
1101	22845	14.896508213214	0
1101	22989	14.897087899798	0
1101	22989	14.897087899798	0
1101	23203	14.897237899798	0
1101	23203	14.897237899798	0
1101	23445	14.898455240958	0
1101	23445	14.898455240958	0
1101	23550	14.898605240958	0
1101	23550	14.898605240958	0
1109	0	0	0
1109	0	0	2
1110	0	0	1
1112	0	0	0
1113	0	0	0
1113	0	0	0
1113	0	0	0
1113	0	0	0
1121	0	0	0
1121	0	0	2
1122	0	0	1
1124	0	0	0
1125	0	0	0
1125	0	0	0
1125	0	0	0
1125	0	0	0
1133	0	0	0
1133	0	0	2
1134	0	0	1
1136	0	0	0
1137	0	0	0
1137	0	0	0
1137	0	0	0
1137	0	0	0
1145	0	0	0
1145	0	0	2
1146	0	0	1
1148	0	0	0
1149	0	0	0
1149	0	0	0
1149	0	0	0
1149	0	0	0
1157	0	0	0
1157	0	0	2
1158	0	0	1
1160	0	0	0
1161	0	0	0
1161	0	0	0
1161	0	0	0
1161	0	0	0
1169	0	0	0
1169	0	0	2
1170	0	0	1
1172	0	0	0
1173	0	0	0
1173	0	0	0
1173	0	0	0
1173	0	0	0
1181	0	0	0
1181	0	0	2
1182	0	0	1
1184	0	0	0
1185	0	0	0
1185	0	0	0
1185	0	0	0
1185	0	0	0
1189	5166	10.651295709351	88
1189	7254	11.208826149878	88
1189	7622	11.209598128397	88
1189	7874	11.210411178961	88
1189	8106	11.211211557708	88
1189	8356	11.211953301009	88
1189	8621	11.212468079881	88
1189	12636	11.933600329899	88
1189	13129	11.936619416207	88
1189	13361	11.937290011999	88
1189	13628	11.937459626253	88
1189	13851	11.938039657456	88
1189	14345	11.940223199589	88
1189	21885	14.893951448261	88
1189	22128	14.89522875737	88
1189	22380	14.895727428766	88
1189	23208	14.897237912417	88
1189	23547	14.898604616834	88
1189	23815	14.899365357544	88
1190	8743	11.21374408353	88
1190	12768	11.934970369742	88
1190	22736	14.896357428766	88
1191	8741	11.21374408353	88
1191	12766	11.934970369742	88
1191	22734	14.896128540433	88
1192	5166	10.651295709351	88
1192	7254	11.208826149878	88
1192	7622	11.209598128397	88
1192	7874	11.210411178961	88
1192	8106	11.211211557708	88
1192	8356	11.211953301009	88
1192	8621	11.212468079881	88
1192	12636	11.933600329899	88
1192	13129	11.936619416207	88
1192	13361	11.937290011999	88
1192	13628	11.937459626253	88
1192	13851	11.938039657456	88
1192	14345	11.940223199589	88
1192	21885	14.893951448261	88
1192	22128	14.89522875737	88
1192	22380	14.895727428766	88
1192	23208	14.897237912417	88
1192	23547	14.898604616834	88
1192	23815	14.899365357544	88
1193	0	0	0
1193	0	0	2
1193	8744	11.21374408353	3
1193	8957	11.21389408353	2
1193	12769	11.934970369742	3
1193	12872	11.935120369742	2
1193	22737	14.896357428766	3
1193	22840	14.896507428766	2
1194	0	0	1
1194	5060	10.651145709351	3
1194	5165	10.651295709351	1
1194	7044	11.208676149878	3
1194	7253	11.208826149878	1
1194	7516	11.209448128397	3
1194	7621	11.209598128397	1
1194	7765	11.210261178961	3
1194	7873	11.210411178961	1
1194	7998	11.211061557708	3
1194	8105	11.211211557708	1
1194	8247	11.211803301009	3
1194	8355	11.211953301009	1
1194	8503	11.212318079881	3
1194	8620	11.212468079881	1
1194	8744	11.21374408353	0
1194	8957	11.21389408353	1
1194	12530	11.933450329899	3
1194	12635	11.933600329899	1
1194	12769	11.934970369742	0
1194	12872	11.935120369742	1
1194	13020	11.936469416207	3
1194	13128	11.936619416207	1
1194	13254	11.937140011999	3
1194	13360	11.937290011999	1
1194	13510	11.937309626253	3
1194	13627	11.937459626253	1
1194	13748	11.937889657456	3
1194	13850	11.938039657456	1
1194	14236	11.940073199589	3
1194	14344	11.940223199589	1
1194	21779	14.893801448261	3
1194	21884	14.893951448261	1
1194	22021	14.89507875737	3
1194	22127	14.89522875737	1
1194	22270	14.895577428766	3
1194	22379	14.895727428766	1
1194	22737	14.896357428766	0
1194	22840	14.896507428766	1
1194	22990	14.897087912417	3
1194	23207	14.897237912417	1
1194	23444	14.898454616834	3
1194	23546	14.898604616834	1
1194	23697	14.899215357544	3
1194	23814	14.899365357544	1
1195	8744	11.21374408353	1
1195	8745	11.21374408353	2
1195	8956	11.21389408353	1
1195	8957	11.21389408353	0
1195	12769	11.934970369742	1
1195	12770	11.934970369742	2
1195	12871	11.935120369742	1
1195	12872	11.935120369742	0
1195	22737	14.896357428766	1
1195	22738	14.896357428766	2
1195	22839	14.896507428766	1
1195	22840	14.896507428766	0
1196	0	0	0
1197	0	0	0
1197	0	0	0
1197	0	0	0
1197	0	0	0
1197	5060	10.651145709351	0
1197	5060	10.651145709351	0
1197	5165	10.651295709351	0
1197	5165	10.651295709351	0
1197	7044	11.208676149878	0
1197	7044	11.208676149878	0
1197	7253	11.208826149878	0
1197	7253	11.208826149878	0
1197	7516	11.209448128397	0
1197	7516	11.209448128397	0
1197	7621	11.209598128397	0
1197	7621	11.209598128397	0
1197	7765	11.210261178961	0
1197	7765	11.210261178961	0
1197	7873	11.210411178961	0
1197	7873	11.210411178961	0
1197	7998	11.211061557708	0
1197	7998	11.211061557708	0
1197	8105	11.211211557708	0
1197	8105	11.211211557708	0
1197	8247	11.211803301009	0
1197	8247	11.211803301009	0
1197	8355	11.211953301009	0
1197	8355	11.211953301009	0
1197	8503	11.212318079881	0
1197	8503	11.212318079881	0
1197	8620	11.212468079881	0
1197	8620	11.212468079881	0
1197	8741	11.21374408353	0
1197	8741	11.21374408353	2
1197	8742	11.21374408353	2
1197	8742	11.21374408353	3
1197	8744	11.21374408353	3
1197	8744	11.21374408353	3
1197	8956	11.21389408353	3
1197	8956	11.21389408353	0
1197	8957	11.21389408353	0
1197	8957	11.21389408353	0
1197	12530	11.933450329899	0
1197	12530	11.933450329899	0
1197	12635	11.933600329899	0
1197	12635	11.933600329899	0
1197	12766	11.934970369742	0
1197	12766	11.934970369742	2
1197	12767	11.934970369742	2
1197	12767	11.934970369742	3
1197	12769	11.934970369742	3
1197	12769	11.934970369742	3
1197	12871	11.935120369742	3
1197	12871	11.935120369742	0
1197	12872	11.935120369742	0
1197	12872	11.935120369742	0
1197	13020	11.936469416207	0
1197	13020	11.936469416207	0
1197	13128	11.936619416207	0
1197	13128	11.936619416207	0
1197	13254	11.937140011999	0
1197	13254	11.937140011999	0
1197	13360	11.937290011999	0
1197	13360	11.937290011999	0
1197	13510	11.937309626253	0
1197	13510	11.937309626253	0
1197	13627	11.937459626253	0
1197	13627	11.937459626253	0
1197	13748	11.937889657456	0
1197	13748	11.937889657456	0
1197	13850	11.938039657456	0
1197	13850	11.938039657456	0
1197	14236	11.940073199589	0
1197	14236	11.940073199589	0
1197	14344	11.940223199589	0
1197	14344	11.940223199589	0
1197	21779	14.893801448261	0
1197	21779	14.893801448261	0
1197	21884	14.893951448261	0
1197	21884	14.893951448261	0
1197	22021	14.89507875737	0
1197	22021	14.89507875737	0
1197	22127	14.89522875737	0
1197	22127	14.89522875737	0
1197	22270	14.895577428766	0
1197	22270	14.895577428766	0
1197	22379	14.895727428766	0
1197	22379	14.895727428766	0
1197	22734	14.896128540433	0
1197	22734	14.896128540433	2
1197	22735	14.896357428766	2
1197	22735	14.896357428766	3
1197	22737	14.896357428766	3
1197	22737	14.896357428766	3
1197	22839	14.896507428766	3
1197	22839	14.896507428766	0
1197	22840	14.896507428766	0
1197	22840	14.896507428766	0
1197	22990	14.897087912417	0
1197	22990	14.897087912417	0
1197	23207	14.897237912417	0
1197	23207	14.897237912417	0
1197	23444	14.898454616834	0
1197	23444	14.898454616834	0
1197	23546	14.898604616834	0
1197	23546	14.898604616834	0
1197	23697	14.899215357544	0
1197	23697	14.899215357544	0
1197	23814	14.899365357544	0
1197	23814	14.899365357544	0
1201	17638	11.949749207498	88
1201	17863	11.952585735502	88
1201	18346	11.955977532965	88
1201	18804	11.956991460277	88
1201	24773	14.901101167142	88
1201	27077	14.905689328616	88
1201	27423	14.907307801802	88
1201	27989	14.91035802974	88
1202	17990	11.954549625697	88
1202	26735	14.905157761944	88
1203	17988	11.954549625697	88
1203	26733	14.905157761944	88
1204	17638	11.949749207498	88
1204	17863	11.952585735502	88
1204	18346	11.955977532965	88
1204	18804	11.956991460277	88
1204	24773	14.901101167142	88
1204	27077	14.905689328616	88
1204	27423	14.907307801802	88
1204	27989	14.91035802974	88
1205	0	0	0
1205	0	0	2
1205	17991	11.954549625697	3
1205	18094	11.954699625697	2
1205	26736	14.905157761944	3
1205	26840	14.905307761944	2
1206	0	0	1
1206	17529	11.949599207498	3
1206	17637	11.949749207498	1
1206	17760	11.952435735502	3
1206	17862	11.952585735502	1
1206	17991	11.954549625697	0
1206	18094	11.954699625697	1
1206	18233	11.955827532965	3
1206	18345	11.955977532965	1
1206	18697	11.956841460277	3
1206	18803	11.956991460277	1
1206	24664	14.900951167142	3
1206	24772	14.901101167142	1
1206	26736	14.905157761944	0
1206	26840	14.905307761944	1
1206	26974	14.905539328616	3
1206	27076	14.905689328616	1
1206	27207	14.907157801802	3
1206	27422	14.907307801802	1
1206	27876	14.91020802974	3
1206	27988	14.91035802974	1
1207	17991	11.954549625697	1
1207	17992	11.954549625697	2
1207	18093	11.954699625697	1
1207	18094	11.954699625697	0
1207	26736	14.905157761944	1
1207	26737	14.905157761944	2
1207	26839	14.905307761944	1
1207	26840	14.905307761944	0
1208	0	0	0
1209	0	0	0
1209	0	0	0
1209	0	0	0
1209	0	0	0
1209	17529	11.949599207498	0
1209	17529	11.949599207498	0
1209	17637	11.949749207498	0
1209	17637	11.949749207498	0
1209	17760	11.952435735502	0
1209	17760	11.952435735502	0
1209	17862	11.952585735502	0
1209	17862	11.952585735502	0
1209	17988	11.954549625697	0
1209	17988	11.954549625697	2
1209	17989	11.954549625697	2
1209	17989	11.954549625697	3
1209	17991	11.954549625697	3
1209	17991	11.954549625697	3
1209	18093	11.954699625697	3
1209	18093	11.954699625697	0
1209	18094	11.954699625697	0
1209	18094	11.954699625697	0
1209	18233	11.955827532965	0
1209	18233	11.955827532965	0
1209	18345	11.955977532965	0
1209	18345	11.955977532965	0
1209	18697	11.956841460277	0
1209	18697	11.956841460277	0
1209	18803	11.956991460277	0
1209	18803	11.956991460277	0
1209	24664	14.900951167142	0
1209	24664	14.900951167142	0
1209	24772	14.901101167142	0
1209	24772	14.901101167142	0
1209	26733	14.905157761944	0
1209	26733	14.905157761944	2
1209	26734	14.905157761944	2
1209	26734	14.905157761944	3
1209	26736	14.905157761944	3
1209	26736	14.905157761944	3
1209	26839	14.905307761944	3
1209	26839	14.905307761944	0
1209	26840	14.905307761944	0
1209	26840	14.905307761944	0
1209	26974	14.905539328616	0
1209	26974	14.905539328616	0
1209	27076	14.905689328616	0
1209	27076	14.905689328616	0
1209	27207	14.907157801802	0
1209	27207	14.907157801802	0
1209	27422	14.907307801802	0
1209	27422	14.907307801802	0
1209	27876	14.91020802974	0
1209	27876	14.91020802974	0
1209	27988	14.91035802974	0
1209	27988	14.91035802974	0
1225	0	0	0
1225	0	0	2
1226	0	0	1
1226	27318	14.907250851	2
1226	27467	14.907313890574	1
1228	0	0	0
1229	0	0	0
1229	0	0	0
1229	0	0	0
1229	0	0	0
1229	27318	14.907250851	0
1229	27318	14.907250851	0
1229	27467	14.907313890574	0
1229	27467	14.907313890574	0
